1

   Abaqus 2023.HF4                                  Date 24-Mar-2025   Time 18:01:59
   For use by AALTO UNIVERSITY under license from Dassault Systemes or its subsidiary.

                                                                                 
                                                                                 
 STEP    1     INCREMENT     1     STEP TIME    0.00    


                        S T E P       1     C O U P L E D - T E M P E R A T U R E - D I S P L A C E M E N T   A N A L Y S I S


                                                                                          

     AUTOMATIC TIME CONTROL WITH -
          A SUGGESTED INITIAL TIME INCREMENT OF                 1.00    
          AND A TOTAL TIME PERIOD OF                            100.    
          THE MINIMUM TIME INCREMENT ALLOWED IS                1.000E-03
          THE MAXIMUM TIME INCREMENT ALLOWED IS                 1.00    

          CREEP AND SWELLING EFFECTS ARE OMITTED IN THIS STEP

     THE SIZE OF THE TIME INCREMENT IS CONTROLLED BY -
          THE TEMPERATURE CHANGE PER INCREMENT NOT EXCEEDING            100.    
          THE RATE DEPENDENCY WILL BE CONSIDERED IN THIS STEP

          CREEP AND SWELLING EFFECTS WILL BE IGNORED.

 CONVERGENCE TOLERANCE PARAMETERS FOR FORCE    
     CRITERION FOR RESIDUAL FORCE     FOR A NONLINEAR PROBLEM          5.000E-03
     CRITERION FOR DISP.    CORRECTION IN A NONLINEAR PROBLEM          1.000E-02
     INITIAL VALUE OF TIME AVERAGE FORCE                               1.000E-02
     AVERAGE FORCE     IS TIME AVERAGE FORCE    
     ALTERNATE CRIT. FOR RESIDUAL FORCE     FOR A NONLINEAR PROBLEM    2.000E-02
     CRITERION FOR ZERO FORCE     RELATIVE TO TIME AVRG. FORCE         1.000E-05
     CRITERION FOR RESIDUAL FORCE     WHEN THERE IS ZERO FLUX          1.000E-05
     CRITERION FOR DISP.    CORRECTION WHEN THERE IS ZERO FLUX         1.000E-03
     CRITERION FOR RESIDUAL FORCE     FOR A LINEAR INCREMENT           1.000E-08
     FIELD CONVERSION RATIO                                             1.00    
     CRITERION FOR ZERO FORCE     REL. TO TIME AVRG. MAX. FORCE        1.000E-05
     CRITERION FOR ZERO DISP.    RELATIVE TO CHARACTERISTIC LENGTH     1.000E-08

 CONVERGENCE TOLERANCE PARAMETERS FOR HEAT FLUX
     CRITERION FOR RESIDUAL HEAT FLUX FOR A NONLINEAR PROBLEM          5.000E-03
     CRITERION FOR TEMP.    CORRECTION IN A NONLINEAR PROBLEM          1.000E-02
     INITIAL VALUE OF TIME AVERAGE HEAT FLUX                           1.000E-02
     AVERAGE HEAT FLUX IS TIME AVERAGE HEAT FLUX
     ALTERNATE CRIT. FOR RESIDUAL HEAT FLUX FOR A NONLINEAR PROBLEM    2.000E-02
     CRITERION FOR ZERO HEAT FLUX RELATIVE TO TIME AVRG. HEAT FLUX     1.000E-05
     CRITERION FOR RESIDUAL HEAT FLUX WHEN THERE IS ZERO FLUX          1.000E-05
     CRITERION FOR TEMP.    CORRECTION WHEN THERE IS ZERO FLUX         1.000E-03
     CRITERION FOR RESIDUAL HEAT FLUX FOR A LINEAR INCREMENT           1.000E-08
     FIELD CONVERSION RATIO                                             1.00    
     CRITERION FOR ZERO HEAT FLUX REL. TO TIME AVRG. MAX. HEAT FLUX    1.000E-05

     VOLUMETRIC STRAIN COMPATIBILITY TOLERANCE FOR HYBRID SOLIDS       1.000E-05
     AXIAL STRAIN COMPATIBILITY TOLERANCE FOR HYBRID BEAMS             1.000E-05
     TRANS. SHEAR STRAIN COMPATIBILITY TOLERANCE FOR HYBRID BEAMS      1.000E-05
     SOFT CONTACT CONSTRAINT COMPATIBILITY TOLERANCE FOR P>P0          5.000E-03
     SOFT CONTACT CONSTRAINT COMPATIBILITY TOLERANCE FOR P=0.0         0.100    
     CONTACT FORCE ERROR TOLERANCE FOR CONVERT SDI=YES                 1.00    
     DISPLACEMENT COMPATIBILITY TOLERANCE FOR DCOUP ELEMENTS           1.000E-05
     ROTATION COMPATIBILITY TOLERANCE FOR DCOUP ELEMENTS               1.000E-05

 EQUILIBRIUM WILL BE CHECKED FOR SEVERE DISCONTINUITY ITERATIONS

 TIME INCREMENTATION CONTROL PARAMETERS:
     FIRST EQUILIBRIUM ITERATION FOR CONSECUTIVE DIVERGENCE CHECK              4
     EQUILIBRIUM ITERATION AT WHICH LOG. CONVERGENCE RATE CHECK BEGINS         8
     EQUILIBRIUM ITERATION AFTER WHICH ALTERNATE RESIDUAL IS USED              9
     MAXIMUM EQUILIBRIUM ITERATIONS ALLOWED                                   16
     EQUILIBRIUM ITERATION COUNT FOR CUT-BACK IN NEXT INCREMENT               10
     MAXIMUM EQUILIB. ITERS IN TWO INCREMENTS FOR TIME INCREMENT INCREASE      4
     MAXIMUM ITERATIONS FOR SEVERE DISCONTINUITIES                            50
     MAXIMUM ATTEMPTS ALLOWED IN AN INCREMENT                                  5
     MAXIMUM DISCON. ITERS IN TWO INCREMENTS FOR TIME INCREMENT INCREASE      50
     MAXIMUM CONTACT AUGMENTATIONS FOR *SURFACE BEHAVIOR,AUGMENTED LAGRANGE   50
     CONSECUTIVE INCS MEETING TIME INTEG. TOL. FOR TIME INC. INCREASE          3
     CUT-BACK FACTOR AFTER DIVERGENCE                                 0.2500    
     CUT-BACK FACTOR FOR TOO SLOW CONVERGENCE                         0.5000    
     CUT-BACK FACTOR AFTER TOO MANY EQUILIBRIUM ITERATIONS            0.7500    
     CUT-BACK FACTOR AFTER TOO MANY SEVERE DISCONTINUITY ITERATIONS   0.2500    
     CUT-BACK FACTOR AFTER PROBLEMS IN ELEMENT ASSEMBLY               0.2500    
     INCREASE FACTOR AFTER TWO INCREMENTS THAT CONVERGE QUICKLY        1.500    
     MAX. TIME INCREMENT INCREASE FACTOR ALLOWED                       1.500    
     MAX. TIME INCREMENT INCREASE FACTOR ALLOWED (DYNAMICS)            1.250    
     MAX. TIME INCREMENT INCREASE FACTOR ALLOWED (DIFFUSION)           2.000    
     MINIMUM TIME INCREMENT RATIO FOR EXTRAPOLATION TO OCCUR          0.1000    
     CUT-BACK FACTOR WHEN TIME INTEGRATION ACCURACY TOL. EXCEEDED     0.8500    
     MAX. RATIO OF TIME INTEG. MEASURE TO TOL. FOR TIME INC. INCREASE 0.7500    
     INCREASE FACTOR FOR TIME INCREMENT WHEN POSSIBLE                 0.8000    
     MIN. TIME INC. INCREASE FACTOR IN LINEAR TRANSIENT PROBLEMS      0.9500    
     MAX. RATIO OF TIME INCREMENT TO STABILITY LIMIT                   1.000    
     FRACTION OF STABILITY LIMIT FOR NEW TIME INCREMENT               0.9500    
     TIME INCREMENT INCREASE FACTOR BEFORE A TIME POINT                1.000    
     GLOBAL STABILIZATION CONTROL IS NOT USED

          PRINT OF INCREMENT NUMBER, TIME, ETC., EVERY    1  INCREMENTS

     THE MAXIMUM NUMBER OF INCREMENTS IN THIS STEP IS                     100

          UNSYMMETRIC MATRIX STORAGE AND SOLUTION WILL BE USED

     LINEAR EXTRAPOLATION WILL BE USED

     CHARACTERISTIC ELEMENT LENGTH     1.000E-03

     DETAILS REGARDING ACTUAL SOLUTION WAVEFRONT REQUESTED

     DETAILED OUTPUT OF DIAGNOSTICS TO DATABASE REQUESTED

     PRINT OF INCREMENT NUMBER, TIME, ETC., TO THE MESSAGE FILE EVERY     1  INCREMENTS

     COLLECTING MODEL CONSTRAINT INFORMATION FOR OVERCONSTRAINT CHECKS

     COLLECTING STEP CONSTRAINT INFORMATION FOR OVERCONSTRAINT CHECKS


  INCREMENT     1 STARTS. ATTEMPT NUMBER  1, TIME INCREMENT   1.00    
 
	UNSYMMETRIC NEW DIRECT SPARSE SOLVER RUNNING ON
 	1 HOST x 1 MPI RANK PER HOST x 1 THREAD PER RANK
        NUMBER OF EQUATIONS:  32
        NUMBER OF RHS:        1
        NUMBER OF FLOPS:      2.189e+04
        SOLVER ELAPSED TIME:  5ms

               CONVERGENCE CHECKS FOR EQUILIBRIUM ITERATION     1


 AVERAGE FORCE                       175.       TIME AVG. FORCE        175.    
 LARGEST SCALED RESIDUAL FORCE      7.615E-14   AT NODE          2   DOF  3
   INSTANCE: CUBE_ASSEMBLY                                                                   
  CORRESPONDING RESIDUAL FORCE      7.615E-14
 LARGEST INCREMENT OF DISP.         1.000E-05   AT NODE          1   DOF  2
   INSTANCE: CUBE_ASSEMBLY                                                                   
 LARGEST CORRECTION TO DISP.        1.000E-05   AT NODE          1   DOF  2
   INSTANCE: CUBE_ASSEMBLY                                                                   
          THE FORCE     EQUILIBRIUM RESPONSE WAS LINEAR IN THIS INCREMENT

 AVERAGE HEAT FLUX                  4.979E-03   TIME AVG. HEAT FLUX   4.979E-03
 LARGEST RESIDUAL HEAT FLUX        -2.202E-20   AT NODE          4   DOF 11
   INSTANCE: CUBE_ASSEMBLY                                                                   
 LARGEST INCREMENT OF TEMP.          100.       AT NODE          7   DOF 11
   INSTANCE: CUBE_ASSEMBLY                                                                   
 LARGEST CORRECTION TO TEMP.         100.       AT NODE          7   DOF 11
   INSTANCE: CUBE_ASSEMBLY                                                                   
          THE HEAT FLUX EQUILIBRIUM RESPONSE WAS LINEAR IN THIS INCREMENT

 MAXIMUM NON-PRESCRIBED INCREMENT IN TEMPERATURE IS   0.210    

 ITERATION SUMMARY FOR THE INCREMENT:   1 TOTAL ITERATIONS, OF WHICH
   0 ARE SEVERE DISCONTINUITY ITERATIONS AND  1 ARE EQUILIBRIUM ITERATIONS.

 TIME INCREMENT COMPLETED   1.00    ,  FRACTION OF STEP COMPLETED  1.000E-02
 STEP TIME COMPLETED        1.00    ,  TOTAL TIME COMPLETED         1.00    


  INCREMENT     2 STARTS. ATTEMPT NUMBER  1, TIME INCREMENT   1.00    
 
	UNSYMMETRIC NEW DIRECT SPARSE SOLVER RUNNING ON
 	1 HOST x 1 MPI RANK PER HOST x 1 THREAD PER RANK
        NUMBER OF EQUATIONS:  32
        NUMBER OF RHS:        1
        NUMBER OF FLOPS:      2.189e+04
        SOLVER ELAPSED TIME:  1ms

               CONVERGENCE CHECKS FOR EQUILIBRIUM ITERATION     1


 AVERAGE FORCE                      1.050E+03   TIME AVG. FORCE        613.    
 LARGEST SCALED RESIDUAL FORCE      6.714E-14   AT NODE          1   DOF  3
   INSTANCE: CUBE_ASSEMBLY                                                                   
  CORRESPONDING RESIDUAL FORCE      6.714E-14
 LARGEST INCREMENT OF DISP.         1.000E-05   AT NODE          1   DOF  2
   INSTANCE: CUBE_ASSEMBLY                                                                   
 LARGEST CORRECTION TO DISP.        6.073E-21   AT NODE          2   DOF  3
   INSTANCE: CUBE_ASSEMBLY                                                                   
          THE FORCE     EQUILIBRIUM RESPONSE WAS LINEAR IN THIS INCREMENT

 AVERAGE HEAT FLUX                  4.149E-05   TIME AVG. HEAT FLUX   2.510E-03
 LARGEST RESIDUAL HEAT FLUX         3.685E-20   AT NODE          1   DOF 11
   INSTANCE: CUBE_ASSEMBLY                                                                   
 LARGEST INCREMENT OF TEMP.         0.209       AT NODE          1   DOF 11
   INSTANCE: CUBE_ASSEMBLY                                                                   
 LARGEST CORRECTION TO TEMP.        -100.       AT NODE          7   DOF 11
   INSTANCE: CUBE_ASSEMBLY                                                                   
          THE HEAT FLUX EQUILIBRIUM RESPONSE WAS LINEAR IN THIS INCREMENT

 MAXIMUM NON-PRESCRIBED INCREMENT IN TEMPERATURE IS   0.209    

 ITERATION SUMMARY FOR THE INCREMENT:   1 TOTAL ITERATIONS, OF WHICH
   0 ARE SEVERE DISCONTINUITY ITERATIONS AND  1 ARE EQUILIBRIUM ITERATIONS.

 TIME INCREMENT COMPLETED   1.00    ,  FRACTION OF STEP COMPLETED  2.000E-02
 STEP TIME COMPLETED        2.00    ,  TOTAL TIME COMPLETED         2.00    


  INCREMENT     3 STARTS. ATTEMPT NUMBER  1, TIME INCREMENT   1.00    
 
	UNSYMMETRIC NEW DIRECT SPARSE SOLVER RUNNING ON
 	1 HOST x 1 MPI RANK PER HOST x 1 THREAD PER RANK
        NUMBER OF EQUATIONS:  32
        NUMBER OF RHS:        1
        NUMBER OF FLOPS:      2.189e+04
        SOLVER ELAPSED TIME:  0ms

               CONVERGENCE CHECKS FOR EQUILIBRIUM ITERATION     1


 AVERAGE FORCE                      1.575E+03   TIME AVG. FORCE        933.    
 LARGEST SCALED RESIDUAL FORCE      8.013E-14   AT NODE          4   DOF  1
   INSTANCE: CUBE_ASSEMBLY                                                                   
  CORRESPONDING RESIDUAL FORCE      8.013E-14
 LARGEST INCREMENT OF DISP.         1.000E-05   AT NODE          1   DOF  2
   INSTANCE: CUBE_ASSEMBLY                                                                   
 LARGEST CORRECTION TO DISP.        4.866E-21   AT NODE          6   DOF  3
   INSTANCE: CUBE_ASSEMBLY                                                                   
          THE FORCE     EQUILIBRIUM RESPONSE WAS LINEAR IN THIS INCREMENT

 AVERAGE HEAT FLUX                  4.141E-05   TIME AVG. HEAT FLUX   1.687E-03
 LARGEST RESIDUAL HEAT FLUX         1.694E-20   AT NODE          8   DOF 11
   INSTANCE: CUBE_ASSEMBLY                                                                   
 LARGEST INCREMENT OF TEMP.         0.208       AT NODE          1   DOF 11
   INSTANCE: CUBE_ASSEMBLY                                                                   
 LARGEST CORRECTION TO TEMP.       -1.720E-03   AT NODE          2   DOF 11
   INSTANCE: CUBE_ASSEMBLY                                                                   
          THE HEAT FLUX EQUILIBRIUM RESPONSE WAS LINEAR IN THIS INCREMENT

 MAXIMUM NON-PRESCRIBED INCREMENT IN TEMPERATURE IS   0.208    

 ITERATION SUMMARY FOR THE INCREMENT:   1 TOTAL ITERATIONS, OF WHICH
   0 ARE SEVERE DISCONTINUITY ITERATIONS AND  1 ARE EQUILIBRIUM ITERATIONS.

 TIME INCREMENT COMPLETED   1.00    ,  FRACTION OF STEP COMPLETED  3.000E-02
 STEP TIME COMPLETED        3.00    ,  TOTAL TIME COMPLETED         3.00    


  INCREMENT     4 STARTS. ATTEMPT NUMBER  1, TIME INCREMENT   1.00    
 
	UNSYMMETRIC NEW DIRECT SPARSE SOLVER RUNNING ON
 	1 HOST x 1 MPI RANK PER HOST x 1 THREAD PER RANK
        NUMBER OF EQUATIONS:  32
        NUMBER OF RHS:        1
        NUMBER OF FLOPS:      2.189e+04
        SOLVER ELAPSED TIME:  0ms

               CONVERGENCE CHECKS FOR EQUILIBRIUM ITERATION     1


 AVERAGE FORCE                      2.100E+03   TIME AVG. FORCE       1.225E+03
 LARGEST SCALED RESIDUAL FORCE     -1.435E-13   AT NODE          5   DOF  3
   INSTANCE: CUBE_ASSEMBLY                                                                   
  CORRESPONDING RESIDUAL FORCE     -1.435E-13
 LARGEST INCREMENT OF DISP.         1.000E-05   AT NODE          1   DOF  2
   INSTANCE: CUBE_ASSEMBLY                                                                   
 LARGEST CORRECTION TO DISP.       -6.418E-21   AT NODE          6   DOF  3
   INSTANCE: CUBE_ASSEMBLY                                                                   
          THE FORCE     EQUILIBRIUM RESPONSE WAS LINEAR IN THIS INCREMENT

 AVERAGE HEAT FLUX                  4.132E-05   TIME AVG. HEAT FLUX   1.276E-03
 LARGEST RESIDUAL HEAT FLUX         2.774E-20   AT NODE          1   DOF 11
   INSTANCE: CUBE_ASSEMBLY                                                                   
 LARGEST INCREMENT OF TEMP.         0.207       AT NODE          1   DOF 11
   INSTANCE: CUBE_ASSEMBLY                                                                   
 LARGEST CORRECTION TO TEMP.       -1.700E-03   AT NODE          2   DOF 11
   INSTANCE: CUBE_ASSEMBLY                                                                   
          THE HEAT FLUX EQUILIBRIUM RESPONSE WAS LINEAR IN THIS INCREMENT

 MAXIMUM NON-PRESCRIBED INCREMENT IN TEMPERATURE IS   0.207    

 ITERATION SUMMARY FOR THE INCREMENT:   1 TOTAL ITERATIONS, OF WHICH
   0 ARE SEVERE DISCONTINUITY ITERATIONS AND  1 ARE EQUILIBRIUM ITERATIONS.

 TIME INCREMENT COMPLETED   1.00    ,  FRACTION OF STEP COMPLETED  4.000E-02
 STEP TIME COMPLETED        4.00    ,  TOTAL TIME COMPLETED         4.00    


  INCREMENT     5 STARTS. ATTEMPT NUMBER  1, TIME INCREMENT   1.00    
 
	UNSYMMETRIC NEW DIRECT SPARSE SOLVER RUNNING ON
 	1 HOST x 1 MPI RANK PER HOST x 1 THREAD PER RANK
        NUMBER OF EQUATIONS:  32
        NUMBER OF RHS:        1
        NUMBER OF FLOPS:      2.189e+04
        SOLVER ELAPSED TIME:  0ms

               CONVERGENCE CHECKS FOR EQUILIBRIUM ITERATION     1


 AVERAGE FORCE                      2.625E+03   TIME AVG. FORCE       1.505E+03
 LARGEST SCALED RESIDUAL FORCE      1.857E-13   AT NODE          2   DOF  1
   INSTANCE: CUBE_ASSEMBLY                                                                   
  CORRESPONDING RESIDUAL FORCE      1.857E-13
 LARGEST INCREMENT OF DISP.         1.000E-05   AT NODE          1   DOF  2
   INSTANCE: CUBE_ASSEMBLY                                                                   
 LARGEST CORRECTION TO DISP.       -5.444E-21   AT NODE          4   DOF  1
   INSTANCE: CUBE_ASSEMBLY                                                                   
          THE FORCE     EQUILIBRIUM RESPONSE WAS LINEAR IN THIS INCREMENT

 AVERAGE HEAT FLUX                  4.123E-05   TIME AVG. HEAT FLUX   1.029E-03
 LARGEST RESIDUAL HEAT FLUX        -4.436E-20   AT NODE          1   DOF 11
   INSTANCE: CUBE_ASSEMBLY                                                                   
 LARGEST INCREMENT OF TEMP.         0.207       AT NODE          1   DOF 11
   INSTANCE: CUBE_ASSEMBLY                                                                   
 LARGEST CORRECTION TO TEMP.       -1.680E-03   AT NODE          2   DOF 11
   INSTANCE: CUBE_ASSEMBLY                                                                   
          THE HEAT FLUX EQUILIBRIUM RESPONSE WAS LINEAR IN THIS INCREMENT

 MAXIMUM NON-PRESCRIBED INCREMENT IN TEMPERATURE IS   0.207    

 ITERATION SUMMARY FOR THE INCREMENT:   1 TOTAL ITERATIONS, OF WHICH
   0 ARE SEVERE DISCONTINUITY ITERATIONS AND  1 ARE EQUILIBRIUM ITERATIONS.

 TIME INCREMENT COMPLETED   1.00    ,  FRACTION OF STEP COMPLETED  5.000E-02
 STEP TIME COMPLETED        5.00    ,  TOTAL TIME COMPLETED         5.00    


  INCREMENT     6 STARTS. ATTEMPT NUMBER  1, TIME INCREMENT   1.00    
 
	UNSYMMETRIC NEW DIRECT SPARSE SOLVER RUNNING ON
 	1 HOST x 1 MPI RANK PER HOST x 1 THREAD PER RANK
        NUMBER OF EQUATIONS:  32
        NUMBER OF RHS:        1
        NUMBER OF FLOPS:      2.189e+04
        SOLVER ELAPSED TIME:  0ms

               CONVERGENCE CHECKS FOR EQUILIBRIUM ITERATION     1


 AVERAGE FORCE                      3.150E+03   TIME AVG. FORCE       1.779E+03
 LARGEST SCALED RESIDUAL FORCE     -1.026E-13   AT NODE          6   DOF  3
   INSTANCE: CUBE_ASSEMBLY                                                                   
  CORRESPONDING RESIDUAL FORCE     -1.026E-13
 LARGEST INCREMENT OF DISP.         1.000E-05   AT NODE          1   DOF  2
   INSTANCE: CUBE_ASSEMBLY                                                                   
 LARGEST CORRECTION TO DISP.        7.223E-21   AT NODE          1   DOF  3
   INSTANCE: CUBE_ASSEMBLY                                                                   
          THE FORCE     EQUILIBRIUM RESPONSE WAS LINEAR IN THIS INCREMENT

 AVERAGE HEAT FLUX                  4.115E-05   TIME AVG. HEAT FLUX   8.643E-04
 LARGEST RESIDUAL HEAT FLUX         2.700E-20   AT NODE          1   DOF 11
   INSTANCE: CUBE_ASSEMBLY                                                                   
 LARGEST INCREMENT OF TEMP.         0.206       AT NODE          1   DOF 11
   INSTANCE: CUBE_ASSEMBLY                                                                   
 LARGEST CORRECTION TO TEMP.       -1.661E-03   AT NODE          2   DOF 11
   INSTANCE: CUBE_ASSEMBLY                                                                   
          THE HEAT FLUX EQUILIBRIUM RESPONSE WAS LINEAR IN THIS INCREMENT

 MAXIMUM NON-PRESCRIBED INCREMENT IN TEMPERATURE IS   0.206    

 ITERATION SUMMARY FOR THE INCREMENT:   1 TOTAL ITERATIONS, OF WHICH
   0 ARE SEVERE DISCONTINUITY ITERATIONS AND  1 ARE EQUILIBRIUM ITERATIONS.

 TIME INCREMENT COMPLETED   1.00    ,  FRACTION OF STEP COMPLETED  6.000E-02
 STEP TIME COMPLETED        6.00    ,  TOTAL TIME COMPLETED         6.00    


  INCREMENT     7 STARTS. ATTEMPT NUMBER  1, TIME INCREMENT   1.00    
 
	UNSYMMETRIC NEW DIRECT SPARSE SOLVER RUNNING ON
 	1 HOST x 1 MPI RANK PER HOST x 1 THREAD PER RANK
        NUMBER OF EQUATIONS:  32
        NUMBER OF RHS:        1
        NUMBER OF FLOPS:      2.189e+04
        SOLVER ELAPSED TIME:  1ms

               CONVERGENCE CHECKS FOR EQUILIBRIUM ITERATION     1


 AVERAGE FORCE                      3.675E+03   TIME AVG. FORCE       2.050E+03
 LARGEST SCALED RESIDUAL FORCE      1.621E-13   AT NODE          5   DOF  3
   INSTANCE: CUBE_ASSEMBLY                                                                   
  CORRESPONDING RESIDUAL FORCE      1.621E-13
 LARGEST INCREMENT OF DISP.         1.000E-05   AT NODE          1   DOF  2
   INSTANCE: CUBE_ASSEMBLY                                                                   
 LARGEST CORRECTION TO DISP.       -9.057E-21   AT NODE          5   DOF  3
   INSTANCE: CUBE_ASSEMBLY                                                                   
          THE FORCE     EQUILIBRIUM RESPONSE WAS LINEAR IN THIS INCREMENT

 AVERAGE HEAT FLUX                  4.106E-05   TIME AVG. HEAT FLUX   7.467E-04
 LARGEST RESIDUAL HEAT FLUX        -3.727E-20   AT NODE          6   DOF 11
   INSTANCE: CUBE_ASSEMBLY                                                                   
 LARGEST INCREMENT OF TEMP.         0.205       AT NODE          1   DOF 11
   INSTANCE: CUBE_ASSEMBLY                                                                   
 LARGEST CORRECTION TO TEMP.       -1.642E-03   AT NODE          2   DOF 11
   INSTANCE: CUBE_ASSEMBLY                                                                   
          THE HEAT FLUX EQUILIBRIUM RESPONSE WAS LINEAR IN THIS INCREMENT

 MAXIMUM NON-PRESCRIBED INCREMENT IN TEMPERATURE IS   0.205    

 ITERATION SUMMARY FOR THE INCREMENT:   1 TOTAL ITERATIONS, OF WHICH
   0 ARE SEVERE DISCONTINUITY ITERATIONS AND  1 ARE EQUILIBRIUM ITERATIONS.

 TIME INCREMENT COMPLETED   1.00    ,  FRACTION OF STEP COMPLETED  7.000E-02
 STEP TIME COMPLETED        7.00    ,  TOTAL TIME COMPLETED         7.00    


  INCREMENT     8 STARTS. ATTEMPT NUMBER  1, TIME INCREMENT   1.00    
 
	UNSYMMETRIC NEW DIRECT SPARSE SOLVER RUNNING ON
 	1 HOST x 1 MPI RANK PER HOST x 1 THREAD PER RANK
        NUMBER OF EQUATIONS:  32
        NUMBER OF RHS:        1
        NUMBER OF FLOPS:      2.189e+04
        SOLVER ELAPSED TIME:  0ms

               CONVERGENCE CHECKS FOR EQUILIBRIUM ITERATION     1


 AVERAGE FORCE                      4.200E+03   TIME AVG. FORCE       2.319E+03
 LARGEST SCALED RESIDUAL FORCE      2.600E-13   AT NODE          2   DOF  3
   INSTANCE: CUBE_ASSEMBLY                                                                   
  CORRESPONDING RESIDUAL FORCE      2.600E-13
 LARGEST INCREMENT OF DISP.         1.000E-05   AT NODE          1   DOF  2
   INSTANCE: CUBE_ASSEMBLY                                                                   
 LARGEST CORRECTION TO DISP.       -1.101E-20   AT NODE          4   DOF  1
   INSTANCE: CUBE_ASSEMBLY                                                                   
          THE FORCE     EQUILIBRIUM RESPONSE WAS LINEAR IN THIS INCREMENT

 AVERAGE HEAT FLUX                  4.098E-05   TIME AVG. HEAT FLUX   6.585E-04
 LARGEST RESIDUAL HEAT FLUX         2.933E-20   AT NODE          3   DOF 11
   INSTANCE: CUBE_ASSEMBLY                                                                   
 LARGEST INCREMENT OF TEMP.         0.204       AT NODE          1   DOF 11
   INSTANCE: CUBE_ASSEMBLY                                                                   
 LARGEST CORRECTION TO TEMP.       -1.623E-03   AT NODE          2   DOF 11
   INSTANCE: CUBE_ASSEMBLY                                                                   
          THE HEAT FLUX EQUILIBRIUM RESPONSE WAS LINEAR IN THIS INCREMENT

 MAXIMUM NON-PRESCRIBED INCREMENT IN TEMPERATURE IS   0.204    

 ITERATION SUMMARY FOR THE INCREMENT:   1 TOTAL ITERATIONS, OF WHICH
   0 ARE SEVERE DISCONTINUITY ITERATIONS AND  1 ARE EQUILIBRIUM ITERATIONS.

 TIME INCREMENT COMPLETED   1.00    ,  FRACTION OF STEP COMPLETED  8.000E-02
 STEP TIME COMPLETED        8.00    ,  TOTAL TIME COMPLETED         8.00    


  INCREMENT     9 STARTS. ATTEMPT NUMBER  1, TIME INCREMENT   1.00    
 
	UNSYMMETRIC NEW DIRECT SPARSE SOLVER RUNNING ON
 	1 HOST x 1 MPI RANK PER HOST x 1 THREAD PER RANK
        NUMBER OF EQUATIONS:  32
        NUMBER OF RHS:        1
        NUMBER OF FLOPS:      2.189e+04
        SOLVER ELAPSED TIME:  0ms

               CONVERGENCE CHECKS FOR EQUILIBRIUM ITERATION     1


 AVERAGE FORCE                      4.725E+03   TIME AVG. FORCE       2.586E+03
 LARGEST SCALED RESIDUAL FORCE      3.082E-13   AT NODE          6   DOF  3
   INSTANCE: CUBE_ASSEMBLY                                                                   
  CORRESPONDING RESIDUAL FORCE      3.082E-13
 LARGEST INCREMENT OF DISP.         1.000E-05   AT NODE          1   DOF  2
   INSTANCE: CUBE_ASSEMBLY                                                                   
 LARGEST CORRECTION TO DISP.        2.169E-20   AT NODE          1   DOF  1
   INSTANCE: CUBE_ASSEMBLY                                                                   
          THE FORCE     EQUILIBRIUM RESPONSE WAS LINEAR IN THIS INCREMENT

 AVERAGE HEAT FLUX                  4.090E-05   TIME AVG. HEAT FLUX   5.898E-04
 LARGEST RESIDUAL HEAT FLUX        -2.329E-20   AT NODE          4   DOF 11
   INSTANCE: CUBE_ASSEMBLY                                                                   
 LARGEST INCREMENT OF TEMP.         0.203       AT NODE          1   DOF 11
   INSTANCE: CUBE_ASSEMBLY                                                                   
 LARGEST CORRECTION TO TEMP.       -1.605E-03   AT NODE          2   DOF 11
   INSTANCE: CUBE_ASSEMBLY                                                                   
          THE HEAT FLUX EQUILIBRIUM RESPONSE WAS LINEAR IN THIS INCREMENT

 MAXIMUM NON-PRESCRIBED INCREMENT IN TEMPERATURE IS   0.203    

 ITERATION SUMMARY FOR THE INCREMENT:   1 TOTAL ITERATIONS, OF WHICH
   0 ARE SEVERE DISCONTINUITY ITERATIONS AND  1 ARE EQUILIBRIUM ITERATIONS.

 TIME INCREMENT COMPLETED   1.00    ,  FRACTION OF STEP COMPLETED  9.000E-02
 STEP TIME COMPLETED        9.00    ,  TOTAL TIME COMPLETED         9.00    


  INCREMENT    10 STARTS. ATTEMPT NUMBER  1, TIME INCREMENT   1.00    
 
	UNSYMMETRIC NEW DIRECT SPARSE SOLVER RUNNING ON
 	1 HOST x 1 MPI RANK PER HOST x 1 THREAD PER RANK
        NUMBER OF EQUATIONS:  32
        NUMBER OF RHS:        1
        NUMBER OF FLOPS:      2.189e+04
        SOLVER ELAPSED TIME:  1ms

               CONVERGENCE CHECKS FOR EQUILIBRIUM ITERATION     1


 AVERAGE FORCE                      5.250E+03   TIME AVG. FORCE       2.853E+03
 LARGEST SCALED RESIDUAL FORCE     -2.205E-13   AT NODE          5   DOF  3
   INSTANCE: CUBE_ASSEMBLY                                                                   
  CORRESPONDING RESIDUAL FORCE     -2.205E-13
 LARGEST INCREMENT OF DISP.         1.000E-05   AT NODE          1   DOF  2
   INSTANCE: CUBE_ASSEMBLY                                                                   
 LARGEST CORRECTION TO DISP.        2.711E-20   AT NODE          1   DOF  2
   INSTANCE: CUBE_ASSEMBLY                                                                   
          THE FORCE     EQUILIBRIUM RESPONSE WAS LINEAR IN THIS INCREMENT

 AVERAGE HEAT FLUX                  4.081E-05   TIME AVG. HEAT FLUX   5.349E-04
 LARGEST RESIDUAL HEAT FLUX         3.049E-20   AT NODE          6   DOF 11
   INSTANCE: CUBE_ASSEMBLY                                                                   
 LARGEST INCREMENT OF TEMP.         0.202       AT NODE          1   DOF 11
   INSTANCE: CUBE_ASSEMBLY                                                                   
 LARGEST CORRECTION TO TEMP.       -1.586E-03   AT NODE          2   DOF 11
   INSTANCE: CUBE_ASSEMBLY                                                                   
          THE HEAT FLUX EQUILIBRIUM RESPONSE WAS LINEAR IN THIS INCREMENT

 MAXIMUM NON-PRESCRIBED INCREMENT IN TEMPERATURE IS   0.202    

 ITERATION SUMMARY FOR THE INCREMENT:   1 TOTAL ITERATIONS, OF WHICH
   0 ARE SEVERE DISCONTINUITY ITERATIONS AND  1 ARE EQUILIBRIUM ITERATIONS.

 TIME INCREMENT COMPLETED   1.00    ,  FRACTION OF STEP COMPLETED  0.100    
 STEP TIME COMPLETED        10.0    ,  TOTAL TIME COMPLETED         10.0    


  INCREMENT    11 STARTS. ATTEMPT NUMBER  1, TIME INCREMENT   1.00    
 
	UNSYMMETRIC NEW DIRECT SPARSE SOLVER RUNNING ON
 	1 HOST x 1 MPI RANK PER HOST x 1 THREAD PER RANK
        NUMBER OF EQUATIONS:  32
        NUMBER OF RHS:        1
        NUMBER OF FLOPS:      2.189e+04
        SOLVER ELAPSED TIME:  0ms

               CONVERGENCE CHECKS FOR EQUILIBRIUM ITERATION     1


 AVERAGE FORCE                      5.775E+03   TIME AVG. FORCE       3.118E+03
 LARGEST SCALED RESIDUAL FORCE     -2.897E-13   AT NODE          5   DOF  3
   INSTANCE: CUBE_ASSEMBLY                                                                   
  CORRESPONDING RESIDUAL FORCE     -2.897E-13
 LARGEST INCREMENT OF DISP.         1.000E-05   AT NODE          1   DOF  2
   INSTANCE: CUBE_ASSEMBLY                                                                   
 LARGEST CORRECTION TO DISP.        1.497E-20   AT NODE          4   DOF  1
   INSTANCE: CUBE_ASSEMBLY                                                                   
          THE FORCE     EQUILIBRIUM RESPONSE WAS LINEAR IN THIS INCREMENT

 AVERAGE HEAT FLUX                  4.073E-05   TIME AVG. HEAT FLUX   4.900E-04
 LARGEST RESIDUAL HEAT FLUX        -2.880E-20   AT NODE          4   DOF 11
   INSTANCE: CUBE_ASSEMBLY                                                                   
 LARGEST INCREMENT OF TEMP.         0.202       AT NODE          1   DOF 11
   INSTANCE: CUBE_ASSEMBLY                                                                   
 LARGEST CORRECTION TO TEMP.       -1.568E-03   AT NODE          2   DOF 11
   INSTANCE: CUBE_ASSEMBLY                                                                   
          THE HEAT FLUX EQUILIBRIUM RESPONSE WAS LINEAR IN THIS INCREMENT

 MAXIMUM NON-PRESCRIBED INCREMENT IN TEMPERATURE IS   0.202    

 ITERATION SUMMARY FOR THE INCREMENT:   1 TOTAL ITERATIONS, OF WHICH
   0 ARE SEVERE DISCONTINUITY ITERATIONS AND  1 ARE EQUILIBRIUM ITERATIONS.

 TIME INCREMENT COMPLETED   1.00    ,  FRACTION OF STEP COMPLETED  0.110    
 STEP TIME COMPLETED        11.0    ,  TOTAL TIME COMPLETED         11.0    


  INCREMENT    12 STARTS. ATTEMPT NUMBER  1, TIME INCREMENT   1.00    
 
	UNSYMMETRIC NEW DIRECT SPARSE SOLVER RUNNING ON
 	1 HOST x 1 MPI RANK PER HOST x 1 THREAD PER RANK
        NUMBER OF EQUATIONS:  32
        NUMBER OF RHS:        1
        NUMBER OF FLOPS:      2.189e+04
        SOLVER ELAPSED TIME:  0ms

               CONVERGENCE CHECKS FOR EQUILIBRIUM ITERATION     1


 AVERAGE FORCE                      6.300E+03   TIME AVG. FORCE       3.383E+03
 LARGEST SCALED RESIDUAL FORCE     -2.725E-13   AT NODE          5   DOF  3
   INSTANCE: CUBE_ASSEMBLY                                                                   
  CORRESPONDING RESIDUAL FORCE     -2.725E-13
 LARGEST INCREMENT OF DISP.         1.000E-05   AT NODE          1   DOF  2
   INSTANCE: CUBE_ASSEMBLY                                                                   
 LARGEST CORRECTION TO DISP.       -1.692E-20   AT NODE          2   DOF  3
   INSTANCE: CUBE_ASSEMBLY                                                                   
          THE FORCE     EQUILIBRIUM RESPONSE WAS LINEAR IN THIS INCREMENT

 AVERAGE HEAT FLUX                  4.065E-05   TIME AVG. HEAT FLUX   4.526E-04
 LARGEST RESIDUAL HEAT FLUX         2.456E-20   AT NODE          5   DOF 11
   INSTANCE: CUBE_ASSEMBLY                                                                   
 LARGEST INCREMENT OF TEMP.         0.201       AT NODE          1   DOF 11
   INSTANCE: CUBE_ASSEMBLY                                                                   
 LARGEST CORRECTION TO TEMP.       -1.550E-03   AT NODE          2   DOF 11
   INSTANCE: CUBE_ASSEMBLY                                                                   
          THE HEAT FLUX EQUILIBRIUM RESPONSE WAS LINEAR IN THIS INCREMENT

 MAXIMUM NON-PRESCRIBED INCREMENT IN TEMPERATURE IS   0.201    

 ITERATION SUMMARY FOR THE INCREMENT:   1 TOTAL ITERATIONS, OF WHICH
   0 ARE SEVERE DISCONTINUITY ITERATIONS AND  1 ARE EQUILIBRIUM ITERATIONS.

 TIME INCREMENT COMPLETED   1.00    ,  FRACTION OF STEP COMPLETED  0.120    
 STEP TIME COMPLETED        12.0    ,  TOTAL TIME COMPLETED         12.0    


  INCREMENT    13 STARTS. ATTEMPT NUMBER  1, TIME INCREMENT   1.00    
 
	UNSYMMETRIC NEW DIRECT SPARSE SOLVER RUNNING ON
 	1 HOST x 1 MPI RANK PER HOST x 1 THREAD PER RANK
        NUMBER OF EQUATIONS:  32
        NUMBER OF RHS:        1
        NUMBER OF FLOPS:      2.189e+04
        SOLVER ELAPSED TIME:  1ms

               CONVERGENCE CHECKS FOR EQUILIBRIUM ITERATION     1


 AVERAGE FORCE                      6.825E+03   TIME AVG. FORCE       3.648E+03
 LARGEST SCALED RESIDUAL FORCE     -6.281E-13   AT NODE          4   DOF  1
   INSTANCE: CUBE_ASSEMBLY                                                                   
  CORRESPONDING RESIDUAL FORCE     -6.281E-13
 LARGEST INCREMENT OF DISP.         1.000E-05   AT NODE          1   DOF  2
   INSTANCE: CUBE_ASSEMBLY                                                                   
 LARGEST CORRECTION TO DISP.       -1.625E-20   AT NODE          3   DOF  1
   INSTANCE: CUBE_ASSEMBLY                                                                   
          THE FORCE     EQUILIBRIUM RESPONSE WAS LINEAR IN THIS INCREMENT

 AVERAGE HEAT FLUX                  4.056E-05   TIME AVG. HEAT FLUX   4.209E-04
 LARGEST RESIDUAL HEAT FLUX         3.049E-20   AT NODE          8   DOF 11
   INSTANCE: CUBE_ASSEMBLY                                                                   
 LARGEST INCREMENT OF TEMP.         0.200       AT NODE          1   DOF 11
   INSTANCE: CUBE_ASSEMBLY                                                                   
 LARGEST CORRECTION TO TEMP.       -1.532E-03   AT NODE          2   DOF 11
   INSTANCE: CUBE_ASSEMBLY                                                                   
          THE HEAT FLUX EQUILIBRIUM RESPONSE WAS LINEAR IN THIS INCREMENT

 MAXIMUM NON-PRESCRIBED INCREMENT IN TEMPERATURE IS   0.200    

 ITERATION SUMMARY FOR THE INCREMENT:   1 TOTAL ITERATIONS, OF WHICH
   0 ARE SEVERE DISCONTINUITY ITERATIONS AND  1 ARE EQUILIBRIUM ITERATIONS.

 TIME INCREMENT COMPLETED   1.00    ,  FRACTION OF STEP COMPLETED  0.130    
 STEP TIME COMPLETED        13.0    ,  TOTAL TIME COMPLETED         13.0    


  INCREMENT    14 STARTS. ATTEMPT NUMBER  1, TIME INCREMENT   1.00    
 
	UNSYMMETRIC NEW DIRECT SPARSE SOLVER RUNNING ON
 	1 HOST x 1 MPI RANK PER HOST x 1 THREAD PER RANK
        NUMBER OF EQUATIONS:  32
        NUMBER OF RHS:        1
        NUMBER OF FLOPS:      2.189e+04
        SOLVER ELAPSED TIME:  1ms

               CONVERGENCE CHECKS FOR EQUILIBRIUM ITERATION     1


 AVERAGE FORCE                      7.350E+03   TIME AVG. FORCE       3.913E+03
 LARGEST SCALED RESIDUAL FORCE      3.365E-13   AT NODE          5   DOF  3
   INSTANCE: CUBE_ASSEMBLY                                                                   
  CORRESPONDING RESIDUAL FORCE      3.365E-13
 LARGEST INCREMENT OF DISP.         1.000E-05   AT NODE          1   DOF  2
   INSTANCE: CUBE_ASSEMBLY                                                                   
 LARGEST CORRECTION TO DISP.        2.346E-20   AT NODE          1   DOF  3
   INSTANCE: CUBE_ASSEMBLY                                                                   
          THE FORCE     EQUILIBRIUM RESPONSE WAS LINEAR IN THIS INCREMENT

 AVERAGE HEAT FLUX                  4.048E-05   TIME AVG. HEAT FLUX   3.937E-04
 LARGEST RESIDUAL HEAT FLUX         2.118E-20   AT NODE          1   DOF 11
   INSTANCE: CUBE_ASSEMBLY                                                                   
 LARGEST INCREMENT OF TEMP.         0.199       AT NODE          1   DOF 11
   INSTANCE: CUBE_ASSEMBLY                                                                   
 LARGEST CORRECTION TO TEMP.       -1.514E-03   AT NODE          2   DOF 11
   INSTANCE: CUBE_ASSEMBLY                                                                   
          THE HEAT FLUX EQUILIBRIUM RESPONSE WAS LINEAR IN THIS INCREMENT

 MAXIMUM NON-PRESCRIBED INCREMENT IN TEMPERATURE IS   0.199    

 ITERATION SUMMARY FOR THE INCREMENT:   1 TOTAL ITERATIONS, OF WHICH
   0 ARE SEVERE DISCONTINUITY ITERATIONS AND  1 ARE EQUILIBRIUM ITERATIONS.

 TIME INCREMENT COMPLETED   1.00    ,  FRACTION OF STEP COMPLETED  0.140    
 STEP TIME COMPLETED        14.0    ,  TOTAL TIME COMPLETED         14.0    


  INCREMENT    15 STARTS. ATTEMPT NUMBER  1, TIME INCREMENT   1.00    
 
	UNSYMMETRIC NEW DIRECT SPARSE SOLVER RUNNING ON
 	1 HOST x 1 MPI RANK PER HOST x 1 THREAD PER RANK
        NUMBER OF EQUATIONS:  32
        NUMBER OF RHS:        1
        NUMBER OF FLOPS:      2.189e+04
        SOLVER ELAPSED TIME:  0ms

               CONVERGENCE CHECKS FOR EQUILIBRIUM ITERATION     1


 AVERAGE FORCE                      7.875E+03   TIME AVG. FORCE       4.177E+03
 LARGEST SCALED RESIDUAL FORCE     -8.443E-13   AT NODE          5   DOF  3
   INSTANCE: CUBE_ASSEMBLY                                                                   
  CORRESPONDING RESIDUAL FORCE     -8.443E-13
 LARGEST INCREMENT OF DISP.         1.000E-05   AT NODE          1   DOF  2
   INSTANCE: CUBE_ASSEMBLY                                                                   
 LARGEST CORRECTION TO DISP.        3.459E-20   AT NODE          5   DOF  3
   INSTANCE: CUBE_ASSEMBLY                                                                   
          THE FORCE     EQUILIBRIUM RESPONSE WAS LINEAR IN THIS INCREMENT

 AVERAGE HEAT FLUX                  3.232E-04   TIME AVG. HEAT FLUX   3.890E-04
 LARGEST RESIDUAL HEAT FLUX        -4.945E-20   AT NODE          1   DOF 11
   INSTANCE: CUBE_ASSEMBLY                                                                   
 LARGEST INCREMENT OF TEMP.         0.198       AT NODE          1   DOF 11
   INSTANCE: CUBE_ASSEMBLY                                                                   
 LARGEST CORRECTION TO TEMP.       -1.497E-03   AT NODE          2   DOF 11
   INSTANCE: CUBE_ASSEMBLY                                                                   
          THE HEAT FLUX EQUILIBRIUM RESPONSE WAS LINEAR IN THIS INCREMENT

 MAXIMUM NON-PRESCRIBED INCREMENT IN TEMPERATURE IS   0.198    

 ITERATION SUMMARY FOR THE INCREMENT:   1 TOTAL ITERATIONS, OF WHICH
   0 ARE SEVERE DISCONTINUITY ITERATIONS AND  1 ARE EQUILIBRIUM ITERATIONS.

 TIME INCREMENT COMPLETED   1.00    ,  FRACTION OF STEP COMPLETED  0.150    
 STEP TIME COMPLETED        15.0    ,  TOTAL TIME COMPLETED         15.0    


  INCREMENT    16 STARTS. ATTEMPT NUMBER  1, TIME INCREMENT   1.00    
 
	UNSYMMETRIC NEW DIRECT SPARSE SOLVER RUNNING ON
 	1 HOST x 1 MPI RANK PER HOST x 1 THREAD PER RANK
        NUMBER OF EQUATIONS:  32
        NUMBER OF RHS:        1
        NUMBER OF FLOPS:      2.189e+04
        SOLVER ELAPSED TIME:  0ms

               CONVERGENCE CHECKS FOR EQUILIBRIUM ITERATION     1


 AVERAGE FORCE                      8.400E+03   TIME AVG. FORCE       4.441E+03
 LARGEST SCALED RESIDUAL FORCE     -6.725E-13   AT NODE          6   DOF  3
   INSTANCE: CUBE_ASSEMBLY                                                                   
  CORRESPONDING RESIDUAL FORCE     -6.725E-13
 LARGEST INCREMENT OF DISP.         1.000E-05   AT NODE          1   DOF  2
   INSTANCE: CUBE_ASSEMBLY                                                                   
 LARGEST CORRECTION TO DISP.        5.421E-20   AT NODE          1   DOF  2
   INSTANCE: CUBE_ASSEMBLY                                                                   
          THE FORCE     EQUILIBRIUM RESPONSE WAS LINEAR IN THIS INCREMENT

 AVERAGE HEAT FLUX                  3.226E-04   TIME AVG. HEAT FLUX   3.849E-04
 LARGEST RESIDUAL HEAT FLUX         3.081E-20   AT NODE          3   DOF 11
   INSTANCE: CUBE_ASSEMBLY                                                                   
 LARGEST INCREMENT OF TEMP.         0.197       AT NODE          1   DOF 11
   INSTANCE: CUBE_ASSEMBLY                                                                   
 LARGEST CORRECTION TO TEMP.       -1.480E-03   AT NODE          2   DOF 11
   INSTANCE: CUBE_ASSEMBLY                                                                   
          THE HEAT FLUX EQUILIBRIUM RESPONSE WAS LINEAR IN THIS INCREMENT

 MAXIMUM NON-PRESCRIBED INCREMENT IN TEMPERATURE IS   0.197    

 ITERATION SUMMARY FOR THE INCREMENT:   1 TOTAL ITERATIONS, OF WHICH
   0 ARE SEVERE DISCONTINUITY ITERATIONS AND  1 ARE EQUILIBRIUM ITERATIONS.

 TIME INCREMENT COMPLETED   1.00    ,  FRACTION OF STEP COMPLETED  0.160    
 STEP TIME COMPLETED        16.0    ,  TOTAL TIME COMPLETED         16.0    


  INCREMENT    17 STARTS. ATTEMPT NUMBER  1, TIME INCREMENT   1.00    
 
	UNSYMMETRIC NEW DIRECT SPARSE SOLVER RUNNING ON
 	1 HOST x 1 MPI RANK PER HOST x 1 THREAD PER RANK
        NUMBER OF EQUATIONS:  32
        NUMBER OF RHS:        1
        NUMBER OF FLOPS:      2.189e+04
        SOLVER ELAPSED TIME:  0ms

               CONVERGENCE CHECKS FOR EQUILIBRIUM ITERATION     1


 AVERAGE FORCE                      8.925E+03   TIME AVG. FORCE       4.704E+03
 LARGEST SCALED RESIDUAL FORCE      3.570E-13   AT NODE          2   DOF  3
   INSTANCE: CUBE_ASSEMBLY                                                                   
  CORRESPONDING RESIDUAL FORCE      3.570E-13
 LARGEST INCREMENT OF DISP.         1.000E-05   AT NODE          1   DOF  2
   INSTANCE: CUBE_ASSEMBLY                                                                   
 LARGEST CORRECTION TO DISP.       -2.711E-20   AT NODE          1   DOF  2
   INSTANCE: CUBE_ASSEMBLY                                                                   
          THE FORCE     EQUILIBRIUM RESPONSE WAS LINEAR IN THIS INCREMENT

 AVERAGE HEAT FLUX                  3.219E-04   TIME AVG. HEAT FLUX   3.811E-04
 LARGEST RESIDUAL HEAT FLUX         3.854E-20   AT NODE          4   DOF 11
   INSTANCE: CUBE_ASSEMBLY                                                                   
 LARGEST INCREMENT OF TEMP.         0.197       AT NODE          1   DOF 11
   INSTANCE: CUBE_ASSEMBLY                                                                   
 LARGEST CORRECTION TO TEMP.       -1.463E-03   AT NODE          2   DOF 11
   INSTANCE: CUBE_ASSEMBLY                                                                   
          THE HEAT FLUX EQUILIBRIUM RESPONSE WAS LINEAR IN THIS INCREMENT

 MAXIMUM NON-PRESCRIBED INCREMENT IN TEMPERATURE IS   0.197    

 ITERATION SUMMARY FOR THE INCREMENT:   1 TOTAL ITERATIONS, OF WHICH
   0 ARE SEVERE DISCONTINUITY ITERATIONS AND  1 ARE EQUILIBRIUM ITERATIONS.

 TIME INCREMENT COMPLETED   1.00    ,  FRACTION OF STEP COMPLETED  0.170    
 STEP TIME COMPLETED        17.0    ,  TOTAL TIME COMPLETED         17.0    


  INCREMENT    18 STARTS. ATTEMPT NUMBER  1, TIME INCREMENT   1.00    
 
	UNSYMMETRIC NEW DIRECT SPARSE SOLVER RUNNING ON
 	1 HOST x 1 MPI RANK PER HOST x 1 THREAD PER RANK
        NUMBER OF EQUATIONS:  32
        NUMBER OF RHS:        1
        NUMBER OF FLOPS:      2.189e+04
        SOLVER ELAPSED TIME:  1ms

               CONVERGENCE CHECKS FOR EQUILIBRIUM ITERATION     1


 AVERAGE FORCE                      9.450E+03   TIME AVG. FORCE       4.968E+03
 LARGEST SCALED RESIDUAL FORCE      4.594E-13   AT NODE          2   DOF  3
   INSTANCE: CUBE_ASSEMBLY                                                                   
  CORRESPONDING RESIDUAL FORCE      4.594E-13
 LARGEST INCREMENT OF DISP.         1.000E-05   AT NODE          1   DOF  2
   INSTANCE: CUBE_ASSEMBLY                                                                   
 LARGEST CORRECTION TO DISP.       -2.711E-20   AT NODE          1   DOF  2
   INSTANCE: CUBE_ASSEMBLY                                                                   
          THE FORCE     EQUILIBRIUM RESPONSE WAS LINEAR IN THIS INCREMENT

 AVERAGE HEAT FLUX                  3.213E-04   TIME AVG. HEAT FLUX   3.778E-04
 LARGEST RESIDUAL HEAT FLUX         3.833E-20   AT NODE          3   DOF 11
   INSTANCE: CUBE_ASSEMBLY                                                                   
 LARGEST INCREMENT OF TEMP.         0.196       AT NODE          1   DOF 11
   INSTANCE: CUBE_ASSEMBLY                                                                   
 LARGEST CORRECTION TO TEMP.       -1.446E-03   AT NODE          2   DOF 11
   INSTANCE: CUBE_ASSEMBLY                                                                   
          THE HEAT FLUX EQUILIBRIUM RESPONSE WAS LINEAR IN THIS INCREMENT

 MAXIMUM NON-PRESCRIBED INCREMENT IN TEMPERATURE IS   0.196    

 ITERATION SUMMARY FOR THE INCREMENT:   1 TOTAL ITERATIONS, OF WHICH
   0 ARE SEVERE DISCONTINUITY ITERATIONS AND  1 ARE EQUILIBRIUM ITERATIONS.

 TIME INCREMENT COMPLETED   1.00    ,  FRACTION OF STEP COMPLETED  0.180    
 STEP TIME COMPLETED        18.0    ,  TOTAL TIME COMPLETED         18.0    


  INCREMENT    19 STARTS. ATTEMPT NUMBER  1, TIME INCREMENT   1.00    
 
	UNSYMMETRIC NEW DIRECT SPARSE SOLVER RUNNING ON
 	1 HOST x 1 MPI RANK PER HOST x 1 THREAD PER RANK
        NUMBER OF EQUATIONS:  32
        NUMBER OF RHS:        1
        NUMBER OF FLOPS:      2.189e+04
        SOLVER ELAPSED TIME:  1ms

               CONVERGENCE CHECKS FOR EQUILIBRIUM ITERATION     1


 AVERAGE FORCE                      9.975E+03   TIME AVG. FORCE       5.232E+03
 LARGEST SCALED RESIDUAL FORCE      6.924E-13   AT NODE          2   DOF  3
   INSTANCE: CUBE_ASSEMBLY                                                                   
  CORRESPONDING RESIDUAL FORCE      6.924E-13
 LARGEST INCREMENT OF DISP.         1.000E-05   AT NODE          1   DOF  2
   INSTANCE: CUBE_ASSEMBLY                                                                   
 LARGEST CORRECTION TO DISP.        5.421E-20   AT NODE          1   DOF  2
   INSTANCE: CUBE_ASSEMBLY                                                                   
          THE FORCE     EQUILIBRIUM RESPONSE WAS LINEAR IN THIS INCREMENT

 AVERAGE HEAT FLUX                  3.206E-04   TIME AVG. HEAT FLUX   3.748E-04
 LARGEST RESIDUAL HEAT FLUX         2.499E-20   AT NODE          4   DOF 11
   INSTANCE: CUBE_ASSEMBLY                                                                   
 LARGEST INCREMENT OF TEMP.         0.195       AT NODE          1   DOF 11
   INSTANCE: CUBE_ASSEMBLY                                                                   
 LARGEST CORRECTION TO TEMP.       -1.429E-03   AT NODE          2   DOF 11
   INSTANCE: CUBE_ASSEMBLY                                                                   
          THE HEAT FLUX EQUILIBRIUM RESPONSE WAS LINEAR IN THIS INCREMENT

 MAXIMUM NON-PRESCRIBED INCREMENT IN TEMPERATURE IS   0.195    

 ITERATION SUMMARY FOR THE INCREMENT:   1 TOTAL ITERATIONS, OF WHICH
   0 ARE SEVERE DISCONTINUITY ITERATIONS AND  1 ARE EQUILIBRIUM ITERATIONS.

 TIME INCREMENT COMPLETED   1.00    ,  FRACTION OF STEP COMPLETED  0.190    
 STEP TIME COMPLETED        19.0    ,  TOTAL TIME COMPLETED         19.0    


  INCREMENT    20 STARTS. ATTEMPT NUMBER  1, TIME INCREMENT   1.00    
 
	UNSYMMETRIC NEW DIRECT SPARSE SOLVER RUNNING ON
 	1 HOST x 1 MPI RANK PER HOST x 1 THREAD PER RANK
        NUMBER OF EQUATIONS:  32
        NUMBER OF RHS:        1
        NUMBER OF FLOPS:      2.189e+04
        SOLVER ELAPSED TIME:  0ms

               CONVERGENCE CHECKS FOR EQUILIBRIUM ITERATION     1


 AVERAGE FORCE                      1.050E+04   TIME AVG. FORCE       5.495E+03
 LARGEST SCALED RESIDUAL FORCE      5.180E-13   AT NODE          3   DOF  1
   INSTANCE: CUBE_ASSEMBLY                                                                   
  CORRESPONDING RESIDUAL FORCE      5.180E-13
 LARGEST INCREMENT OF DISP.         1.000E-05   AT NODE          1   DOF  2
   INSTANCE: CUBE_ASSEMBLY                                                                   
 LARGEST CORRECTION TO DISP.        3.463E-20   AT NODE          4   DOF  1
   INSTANCE: CUBE_ASSEMBLY                                                                   
          THE FORCE     EQUILIBRIUM RESPONSE WAS LINEAR IN THIS INCREMENT

 AVERAGE HEAT FLUX                  3.200E-04   TIME AVG. HEAT FLUX   3.721E-04
 LARGEST RESIDUAL HEAT FLUX         2.626E-20   AT NODE          4   DOF 11
   INSTANCE: CUBE_ASSEMBLY                                                                   
 LARGEST INCREMENT OF TEMP.         0.194       AT NODE          1   DOF 11
   INSTANCE: CUBE_ASSEMBLY                                                                   
 LARGEST CORRECTION TO TEMP.       -1.413E-03   AT NODE          2   DOF 11
   INSTANCE: CUBE_ASSEMBLY                                                                   
          THE HEAT FLUX EQUILIBRIUM RESPONSE WAS LINEAR IN THIS INCREMENT

 MAXIMUM NON-PRESCRIBED INCREMENT IN TEMPERATURE IS   0.194    

 ITERATION SUMMARY FOR THE INCREMENT:   1 TOTAL ITERATIONS, OF WHICH
   0 ARE SEVERE DISCONTINUITY ITERATIONS AND  1 ARE EQUILIBRIUM ITERATIONS.

 TIME INCREMENT COMPLETED   1.00    ,  FRACTION OF STEP COMPLETED  0.200    
 STEP TIME COMPLETED        20.0    ,  TOTAL TIME COMPLETED         20.0    


  INCREMENT    21 STARTS. ATTEMPT NUMBER  1, TIME INCREMENT   1.00    
 
	UNSYMMETRIC NEW DIRECT SPARSE SOLVER RUNNING ON
 	1 HOST x 1 MPI RANK PER HOST x 1 THREAD PER RANK
        NUMBER OF EQUATIONS:  32
        NUMBER OF RHS:        1
        NUMBER OF FLOPS:      2.189e+04
        SOLVER ELAPSED TIME:  1ms

               CONVERGENCE CHECKS FOR EQUILIBRIUM ITERATION     1


 AVERAGE FORCE                      1.103E+04   TIME AVG. FORCE       5.758E+03
 LARGEST SCALED RESIDUAL FORCE      1.164E-12   AT NODE          1   DOF  3
   INSTANCE: CUBE_ASSEMBLY                                                                   
  CORRESPONDING RESIDUAL FORCE      1.164E-12
 LARGEST INCREMENT OF DISP.         1.000E-05   AT NODE          1   DOF  2
   INSTANCE: CUBE_ASSEMBLY                                                                   
 LARGEST CORRECTION TO DISP.        4.278E-20   AT NODE          3   DOF  1
   INSTANCE: CUBE_ASSEMBLY                                                                   
          THE FORCE     EQUILIBRIUM RESPONSE WAS LINEAR IN THIS INCREMENT

 AVERAGE HEAT FLUX                  3.194E-04   TIME AVG. HEAT FLUX   3.696E-04
 LARGEST RESIDUAL HEAT FLUX        -4.193E-20   AT NODE          4   DOF 11
   INSTANCE: CUBE_ASSEMBLY                                                                   
 LARGEST INCREMENT OF TEMP.         0.194       AT NODE          1   DOF 11
   INSTANCE: CUBE_ASSEMBLY                                                                   
 LARGEST CORRECTION TO TEMP.       -1.396E-03   AT NODE          2   DOF 11
   INSTANCE: CUBE_ASSEMBLY                                                                   
          THE HEAT FLUX EQUILIBRIUM RESPONSE WAS LINEAR IN THIS INCREMENT

 MAXIMUM NON-PRESCRIBED INCREMENT IN TEMPERATURE IS   0.194    

 ITERATION SUMMARY FOR THE INCREMENT:   1 TOTAL ITERATIONS, OF WHICH
   0 ARE SEVERE DISCONTINUITY ITERATIONS AND  1 ARE EQUILIBRIUM ITERATIONS.

 TIME INCREMENT COMPLETED   1.00    ,  FRACTION OF STEP COMPLETED  0.210    
 STEP TIME COMPLETED        21.0    ,  TOTAL TIME COMPLETED         21.0    


  INCREMENT    22 STARTS. ATTEMPT NUMBER  1, TIME INCREMENT   1.00    
 
	UNSYMMETRIC NEW DIRECT SPARSE SOLVER RUNNING ON
 	1 HOST x 1 MPI RANK PER HOST x 1 THREAD PER RANK
        NUMBER OF EQUATIONS:  32
        NUMBER OF RHS:        1
        NUMBER OF FLOPS:      2.189e+04
        SOLVER ELAPSED TIME:  0ms

               CONVERGENCE CHECKS FOR EQUILIBRIUM ITERATION     1


 AVERAGE FORCE                      1.155E+04   TIME AVG. FORCE       6.022E+03
 LARGEST SCALED RESIDUAL FORCE     -5.927E-13   AT NODE          5   DOF  3
   INSTANCE: CUBE_ASSEMBLY                                                                   
  CORRESPONDING RESIDUAL FORCE     -5.927E-13
 LARGEST INCREMENT OF DISP.         1.000E-05   AT NODE          1   DOF  2
   INSTANCE: CUBE_ASSEMBLY                                                                   
 LARGEST CORRECTION TO DISP.       -4.448E-20   AT NODE          3   DOF  1
   INSTANCE: CUBE_ASSEMBLY                                                                   
          THE FORCE     EQUILIBRIUM RESPONSE WAS LINEAR IN THIS INCREMENT

 AVERAGE HEAT FLUX                  3.187E-04   TIME AVG. HEAT FLUX   3.673E-04
 LARGEST RESIDUAL HEAT FLUX         4.913E-20   AT NODE          8   DOF 11
   INSTANCE: CUBE_ASSEMBLY                                                                   
 LARGEST INCREMENT OF TEMP.         0.193       AT NODE          1   DOF 11
   INSTANCE: CUBE_ASSEMBLY                                                                   
 LARGEST CORRECTION TO TEMP.       -1.380E-03   AT NODE          2   DOF 11
   INSTANCE: CUBE_ASSEMBLY                                                                   
          THE HEAT FLUX EQUILIBRIUM RESPONSE WAS LINEAR IN THIS INCREMENT

 MAXIMUM NON-PRESCRIBED INCREMENT IN TEMPERATURE IS   0.193    

 ITERATION SUMMARY FOR THE INCREMENT:   1 TOTAL ITERATIONS, OF WHICH
   0 ARE SEVERE DISCONTINUITY ITERATIONS AND  1 ARE EQUILIBRIUM ITERATIONS.

 TIME INCREMENT COMPLETED   1.00    ,  FRACTION OF STEP COMPLETED  0.220    
 STEP TIME COMPLETED        22.0    ,  TOTAL TIME COMPLETED         22.0    


  INCREMENT    23 STARTS. ATTEMPT NUMBER  1, TIME INCREMENT   1.00    
 
	UNSYMMETRIC NEW DIRECT SPARSE SOLVER RUNNING ON
 	1 HOST x 1 MPI RANK PER HOST x 1 THREAD PER RANK
        NUMBER OF EQUATIONS:  32
        NUMBER OF RHS:        1
        NUMBER OF FLOPS:      2.189e+04
        SOLVER ELAPSED TIME:  0ms

               CONVERGENCE CHECKS FOR EQUILIBRIUM ITERATION     1


 AVERAGE FORCE                      1.208E+04   TIME AVG. FORCE       6.285E+03
 LARGEST SCALED RESIDUAL FORCE      3.508E-13   AT NODE          1   DOF  1
   INSTANCE: CUBE_ASSEMBLY                                                                   
  CORRESPONDING RESIDUAL FORCE      3.508E-13
 LARGEST INCREMENT OF DISP.         1.000E-05   AT NODE          1   DOF  2
   INSTANCE: CUBE_ASSEMBLY                                                                   
 LARGEST CORRECTION TO DISP.        3.978E-20   AT NODE          1   DOF  3
   INSTANCE: CUBE_ASSEMBLY                                                                   
          THE FORCE     EQUILIBRIUM RESPONSE WAS LINEAR IN THIS INCREMENT

 AVERAGE HEAT FLUX                  3.181E-04   TIME AVG. HEAT FLUX   3.651E-04
 LARGEST RESIDUAL HEAT FLUX         2.615E-20   AT NODE          1   DOF 11
   INSTANCE: CUBE_ASSEMBLY                                                                   
 LARGEST INCREMENT OF TEMP.         0.192       AT NODE          1   DOF 11
   INSTANCE: CUBE_ASSEMBLY                                                                   
 LARGEST CORRECTION TO TEMP.       -1.364E-03   AT NODE          2   DOF 11
   INSTANCE: CUBE_ASSEMBLY                                                                   
          THE HEAT FLUX EQUILIBRIUM RESPONSE WAS LINEAR IN THIS INCREMENT

 MAXIMUM NON-PRESCRIBED INCREMENT IN TEMPERATURE IS   0.192    

 ITERATION SUMMARY FOR THE INCREMENT:   1 TOTAL ITERATIONS, OF WHICH
   0 ARE SEVERE DISCONTINUITY ITERATIONS AND  1 ARE EQUILIBRIUM ITERATIONS.

 TIME INCREMENT COMPLETED   1.00    ,  FRACTION OF STEP COMPLETED  0.230    
 STEP TIME COMPLETED        23.0    ,  TOTAL TIME COMPLETED         23.0    


  INCREMENT    24 STARTS. ATTEMPT NUMBER  1, TIME INCREMENT   1.00    
 
	UNSYMMETRIC NEW DIRECT SPARSE SOLVER RUNNING ON
 	1 HOST x 1 MPI RANK PER HOST x 1 THREAD PER RANK
        NUMBER OF EQUATIONS:  32
        NUMBER OF RHS:        1
        NUMBER OF FLOPS:      2.189e+04
        SOLVER ELAPSED TIME:  0ms

               CONVERGENCE CHECKS FOR EQUILIBRIUM ITERATION     1


 AVERAGE FORCE                      1.260E+04   TIME AVG. FORCE       6.548E+03
 LARGEST SCALED RESIDUAL FORCE     -3.646E-13   AT NODE          1   DOF  1
   INSTANCE: CUBE_ASSEMBLY                                                                   
  CORRESPONDING RESIDUAL FORCE     -3.646E-13
 LARGEST INCREMENT OF DISP.         1.000E-05   AT NODE          1   DOF  2
   INSTANCE: CUBE_ASSEMBLY                                                                   
 LARGEST CORRECTION TO DISP.       -4.488E-20   AT NODE          1   DOF  3
   INSTANCE: CUBE_ASSEMBLY                                                                   
          THE FORCE     EQUILIBRIUM RESPONSE WAS LINEAR IN THIS INCREMENT

 AVERAGE HEAT FLUX                  3.175E-04   TIME AVG. HEAT FLUX   3.631E-04
 LARGEST RESIDUAL HEAT FLUX        -3.727E-20   AT NODE          6   DOF 11
   INSTANCE: CUBE_ASSEMBLY                                                                   
 LARGEST INCREMENT OF TEMP.         0.191       AT NODE          1   DOF 11
   INSTANCE: CUBE_ASSEMBLY                                                                   
 LARGEST CORRECTION TO TEMP.       -1.348E-03   AT NODE          2   DOF 11
   INSTANCE: CUBE_ASSEMBLY                                                                   
          THE HEAT FLUX EQUILIBRIUM RESPONSE WAS LINEAR IN THIS INCREMENT

 MAXIMUM NON-PRESCRIBED INCREMENT IN TEMPERATURE IS   0.191    

 ITERATION SUMMARY FOR THE INCREMENT:   1 TOTAL ITERATIONS, OF WHICH
   0 ARE SEVERE DISCONTINUITY ITERATIONS AND  1 ARE EQUILIBRIUM ITERATIONS.

 TIME INCREMENT COMPLETED   1.00    ,  FRACTION OF STEP COMPLETED  0.240    
 STEP TIME COMPLETED        24.0    ,  TOTAL TIME COMPLETED         24.0    


  INCREMENT    25 STARTS. ATTEMPT NUMBER  1, TIME INCREMENT   1.00    
 
	UNSYMMETRIC NEW DIRECT SPARSE SOLVER RUNNING ON
 	1 HOST x 1 MPI RANK PER HOST x 1 THREAD PER RANK
        NUMBER OF EQUATIONS:  32
        NUMBER OF RHS:        1
        NUMBER OF FLOPS:      2.189e+04
        SOLVER ELAPSED TIME:  0ms

               CONVERGENCE CHECKS FOR EQUILIBRIUM ITERATION     1


 AVERAGE FORCE                      1.313E+04   TIME AVG. FORCE       6.811E+03
 LARGEST SCALED RESIDUAL FORCE      5.524E-13   AT NODE          2   DOF  3
   INSTANCE: CUBE_ASSEMBLY                                                                   
  CORRESPONDING RESIDUAL FORCE      5.524E-13
 LARGEST INCREMENT OF DISP.         1.000E-05   AT NODE          1   DOF  2
   INSTANCE: CUBE_ASSEMBLY                                                                   
 LARGEST CORRECTION TO DISP.       -2.955E-20   AT NODE          2   DOF  1
   INSTANCE: CUBE_ASSEMBLY                                                                   
          THE FORCE     EQUILIBRIUM RESPONSE WAS LINEAR IN THIS INCREMENT

 AVERAGE HEAT FLUX                  3.169E-04   TIME AVG. HEAT FLUX   3.613E-04
 LARGEST RESIDUAL HEAT FLUX        -2.414E-20   AT NODE          3   DOF 11
   INSTANCE: CUBE_ASSEMBLY                                                                   
 LARGEST INCREMENT OF TEMP.         0.190       AT NODE          1   DOF 11
   INSTANCE: CUBE_ASSEMBLY                                                                   
 LARGEST CORRECTION TO TEMP.       -1.333E-03   AT NODE          2   DOF 11
   INSTANCE: CUBE_ASSEMBLY                                                                   
          THE HEAT FLUX EQUILIBRIUM RESPONSE WAS LINEAR IN THIS INCREMENT

 MAXIMUM NON-PRESCRIBED INCREMENT IN TEMPERATURE IS   0.190    

 ITERATION SUMMARY FOR THE INCREMENT:   1 TOTAL ITERATIONS, OF WHICH
   0 ARE SEVERE DISCONTINUITY ITERATIONS AND  1 ARE EQUILIBRIUM ITERATIONS.

 TIME INCREMENT COMPLETED   1.00    ,  FRACTION OF STEP COMPLETED  0.250    
 STEP TIME COMPLETED        25.0    ,  TOTAL TIME COMPLETED         25.0    


  INCREMENT    26 STARTS. ATTEMPT NUMBER  1, TIME INCREMENT   1.00    
 
	UNSYMMETRIC NEW DIRECT SPARSE SOLVER RUNNING ON
 	1 HOST x 1 MPI RANK PER HOST x 1 THREAD PER RANK
        NUMBER OF EQUATIONS:  32
        NUMBER OF RHS:        1
        NUMBER OF FLOPS:      2.189e+04
        SOLVER ELAPSED TIME:  1ms

               CONVERGENCE CHECKS FOR EQUILIBRIUM ITERATION     1


 AVERAGE FORCE                      1.365E+04   TIME AVG. FORCE       7.074E+03
 LARGEST SCALED RESIDUAL FORCE     -4.885E-13   AT NODE          4   DOF  1
   INSTANCE: CUBE_ASSEMBLY                                                                   
  CORRESPONDING RESIDUAL FORCE     -4.885E-13
 LARGEST INCREMENT OF DISP.         1.000E-05   AT NODE          1   DOF  2
   INSTANCE: CUBE_ASSEMBLY                                                                   
 LARGEST CORRECTION TO DISP.       -5.284E-20   AT NODE          5   DOF  3
   INSTANCE: CUBE_ASSEMBLY                                                                   
          THE FORCE     EQUILIBRIUM RESPONSE WAS LINEAR IN THIS INCREMENT

 AVERAGE HEAT FLUX                  3.163E-04   TIME AVG. HEAT FLUX   3.596E-04
 LARGEST RESIDUAL HEAT FLUX        -1.863E-20   AT NODE          4   DOF 11
   INSTANCE: CUBE_ASSEMBLY                                                                   
 LARGEST INCREMENT OF TEMP.         0.190       AT NODE          1   DOF 11
   INSTANCE: CUBE_ASSEMBLY                                                                   
 LARGEST CORRECTION TO TEMP.       -1.317E-03   AT NODE          2   DOF 11
   INSTANCE: CUBE_ASSEMBLY                                                                   
          THE HEAT FLUX EQUILIBRIUM RESPONSE WAS LINEAR IN THIS INCREMENT

 MAXIMUM NON-PRESCRIBED INCREMENT IN TEMPERATURE IS   0.190    

 ITERATION SUMMARY FOR THE INCREMENT:   1 TOTAL ITERATIONS, OF WHICH
   0 ARE SEVERE DISCONTINUITY ITERATIONS AND  1 ARE EQUILIBRIUM ITERATIONS.

 TIME INCREMENT COMPLETED   1.00    ,  FRACTION OF STEP COMPLETED  0.260    
 STEP TIME COMPLETED        26.0    ,  TOTAL TIME COMPLETED         26.0    


  INCREMENT    27 STARTS. ATTEMPT NUMBER  1, TIME INCREMENT   1.00    
 
	UNSYMMETRIC NEW DIRECT SPARSE SOLVER RUNNING ON
 	1 HOST x 1 MPI RANK PER HOST x 1 THREAD PER RANK
        NUMBER OF EQUATIONS:  32
        NUMBER OF RHS:        1
        NUMBER OF FLOPS:      2.189e+04
        SOLVER ELAPSED TIME:  0ms

               CONVERGENCE CHECKS FOR EQUILIBRIUM ITERATION     1


 AVERAGE FORCE                      1.418E+04   TIME AVG. FORCE       7.337E+03
 LARGEST SCALED RESIDUAL FORCE      1.321E-12   AT NODE          2   DOF  3
   INSTANCE: CUBE_ASSEMBLY                                                                   
  CORRESPONDING RESIDUAL FORCE      1.321E-12
 LARGEST INCREMENT OF DISP.         1.000E-05   AT NODE          1   DOF  2
   INSTANCE: CUBE_ASSEMBLY                                                                   
 LARGEST CORRECTION TO DISP.        6.455E-20   AT NODE          5   DOF  3
   INSTANCE: CUBE_ASSEMBLY                                                                   
          THE FORCE     EQUILIBRIUM RESPONSE WAS LINEAR IN THIS INCREMENT

 AVERAGE HEAT FLUX                  3.156E-04   TIME AVG. HEAT FLUX   3.579E-04
 LARGEST RESIDUAL HEAT FLUX        -1.694E-20   AT NODE          2   DOF 11
   INSTANCE: CUBE_ASSEMBLY                                                                   
 LARGEST INCREMENT OF TEMP.         0.189       AT NODE          1   DOF 11
   INSTANCE: CUBE_ASSEMBLY                                                                   
 LARGEST CORRECTION TO TEMP.       -1.302E-03   AT NODE          2   DOF 11
   INSTANCE: CUBE_ASSEMBLY                                                                   
          THE HEAT FLUX EQUILIBRIUM RESPONSE WAS LINEAR IN THIS INCREMENT

 MAXIMUM NON-PRESCRIBED INCREMENT IN TEMPERATURE IS   0.189    

 ITERATION SUMMARY FOR THE INCREMENT:   1 TOTAL ITERATIONS, OF WHICH
   0 ARE SEVERE DISCONTINUITY ITERATIONS AND  1 ARE EQUILIBRIUM ITERATIONS.

 TIME INCREMENT COMPLETED   1.00    ,  FRACTION OF STEP COMPLETED  0.270    
 STEP TIME COMPLETED        27.0    ,  TOTAL TIME COMPLETED         27.0    


  INCREMENT    28 STARTS. ATTEMPT NUMBER  1, TIME INCREMENT   1.00    
 
	UNSYMMETRIC NEW DIRECT SPARSE SOLVER RUNNING ON
 	1 HOST x 1 MPI RANK PER HOST x 1 THREAD PER RANK
        NUMBER OF EQUATIONS:  32
        NUMBER OF RHS:        1
        NUMBER OF FLOPS:      2.189e+04
        SOLVER ELAPSED TIME:  0ms

               CONVERGENCE CHECKS FOR EQUILIBRIUM ITERATION     1


 AVERAGE FORCE                      1.470E+04   TIME AVG. FORCE       7.600E+03
 LARGEST SCALED RESIDUAL FORCE     -8.745E-13   AT NODE          2   DOF  3
   INSTANCE: CUBE_ASSEMBLY                                                                   
  CORRESPONDING RESIDUAL FORCE     -8.745E-13
 LARGEST INCREMENT OF DISP.         1.000E-05   AT NODE          1   DOF  2
   INSTANCE: CUBE_ASSEMBLY                                                                   
 LARGEST CORRECTION TO DISP.        1.107E-19   AT NODE          2   DOF  3
   INSTANCE: CUBE_ASSEMBLY                                                                   
          THE FORCE     EQUILIBRIUM RESPONSE WAS LINEAR IN THIS INCREMENT

 AVERAGE HEAT FLUX                  3.150E-04   TIME AVG. HEAT FLUX   3.564E-04
 LARGEST RESIDUAL HEAT FLUX         2.118E-20   AT NODE          4   DOF 11
   INSTANCE: CUBE_ASSEMBLY                                                                   
 LARGEST INCREMENT OF TEMP.         0.188       AT NODE          1   DOF 11
   INSTANCE: CUBE_ASSEMBLY                                                                   
 LARGEST CORRECTION TO TEMP.       -1.287E-03   AT NODE          2   DOF 11
   INSTANCE: CUBE_ASSEMBLY                                                                   
          THE HEAT FLUX EQUILIBRIUM RESPONSE WAS LINEAR IN THIS INCREMENT

 MAXIMUM NON-PRESCRIBED INCREMENT IN TEMPERATURE IS   0.188    

 ITERATION SUMMARY FOR THE INCREMENT:   1 TOTAL ITERATIONS, OF WHICH
   0 ARE SEVERE DISCONTINUITY ITERATIONS AND  1 ARE EQUILIBRIUM ITERATIONS.

 TIME INCREMENT COMPLETED   1.00    ,  FRACTION OF STEP COMPLETED  0.280    
 STEP TIME COMPLETED        28.0    ,  TOTAL TIME COMPLETED         28.0    


  INCREMENT    29 STARTS. ATTEMPT NUMBER  1, TIME INCREMENT   1.00    
 
	UNSYMMETRIC NEW DIRECT SPARSE SOLVER RUNNING ON
 	1 HOST x 1 MPI RANK PER HOST x 1 THREAD PER RANK
        NUMBER OF EQUATIONS:  32
        NUMBER OF RHS:        1
        NUMBER OF FLOPS:      2.189e+04
        SOLVER ELAPSED TIME:  0ms

               CONVERGENCE CHECKS FOR EQUILIBRIUM ITERATION     1


 AVERAGE FORCE                      1.523E+04   TIME AVG. FORCE       7.863E+03
 LARGEST SCALED RESIDUAL FORCE      7.945E-13   AT NODE          2   DOF  3
   INSTANCE: CUBE_ASSEMBLY                                                                   
  CORRESPONDING RESIDUAL FORCE      7.945E-13
 LARGEST INCREMENT OF DISP.         1.000E-05   AT NODE          1   DOF  2
   INSTANCE: CUBE_ASSEMBLY                                                                   
 LARGEST CORRECTION TO DISP.       -1.009E-19   AT NODE          2   DOF  3
   INSTANCE: CUBE_ASSEMBLY                                                                   
          THE FORCE     EQUILIBRIUM RESPONSE WAS LINEAR IN THIS INCREMENT

 AVERAGE HEAT FLUX                  3.144E-04   TIME AVG. HEAT FLUX   3.549E-04
 LARGEST RESIDUAL HEAT FLUX        -1.768E-20   AT NODE          3   DOF 11
   INSTANCE: CUBE_ASSEMBLY                                                                   
 LARGEST INCREMENT OF TEMP.         0.187       AT NODE          1   DOF 11
   INSTANCE: CUBE_ASSEMBLY                                                                   
 LARGEST CORRECTION TO TEMP.       -1.272E-03   AT NODE          2   DOF 11
   INSTANCE: CUBE_ASSEMBLY                                                                   
          THE HEAT FLUX EQUILIBRIUM RESPONSE WAS LINEAR IN THIS INCREMENT

 MAXIMUM NON-PRESCRIBED INCREMENT IN TEMPERATURE IS   0.187    

 ITERATION SUMMARY FOR THE INCREMENT:   1 TOTAL ITERATIONS, OF WHICH
   0 ARE SEVERE DISCONTINUITY ITERATIONS AND  1 ARE EQUILIBRIUM ITERATIONS.

 TIME INCREMENT COMPLETED   1.00    ,  FRACTION OF STEP COMPLETED  0.290    
 STEP TIME COMPLETED        29.0    ,  TOTAL TIME COMPLETED         29.0    


  INCREMENT    30 STARTS. ATTEMPT NUMBER  1, TIME INCREMENT   1.00    
 
	UNSYMMETRIC NEW DIRECT SPARSE SOLVER RUNNING ON
 	1 HOST x 1 MPI RANK PER HOST x 1 THREAD PER RANK
        NUMBER OF EQUATIONS:  32
        NUMBER OF RHS:        1
        NUMBER OF FLOPS:      2.189e+04
        SOLVER ELAPSED TIME:  0ms

               CONVERGENCE CHECKS FOR EQUILIBRIUM ITERATION     1


 AVERAGE FORCE                      1.575E+04   TIME AVG. FORCE       8.126E+03
 LARGEST SCALED RESIDUAL FORCE     -6.451E-13   AT NODE          1   DOF  3
   INSTANCE: CUBE_ASSEMBLY                                                                   
  CORRESPONDING RESIDUAL FORCE     -6.451E-13
 LARGEST INCREMENT OF DISP.         1.000E-05   AT NODE          1   DOF  2
   INSTANCE: CUBE_ASSEMBLY                                                                   
 LARGEST CORRECTION TO DISP.       -1.089E-19   AT NODE          6   DOF  3
   INSTANCE: CUBE_ASSEMBLY                                                                   
          THE FORCE     EQUILIBRIUM RESPONSE WAS LINEAR IN THIS INCREMENT

 AVERAGE HEAT FLUX                  3.138E-04   TIME AVG. HEAT FLUX   3.536E-04
 LARGEST RESIDUAL HEAT FLUX        -1.863E-20   AT NODE          6   DOF 11
   INSTANCE: CUBE_ASSEMBLY                                                                   
 LARGEST INCREMENT OF TEMP.         0.187       AT NODE          1   DOF 11
   INSTANCE: CUBE_ASSEMBLY                                                                   
 LARGEST CORRECTION TO TEMP.       -1.258E-03   AT NODE          2   DOF 11
   INSTANCE: CUBE_ASSEMBLY                                                                   
          THE HEAT FLUX EQUILIBRIUM RESPONSE WAS LINEAR IN THIS INCREMENT

 MAXIMUM NON-PRESCRIBED INCREMENT IN TEMPERATURE IS   0.187    

 ITERATION SUMMARY FOR THE INCREMENT:   1 TOTAL ITERATIONS, OF WHICH
   0 ARE SEVERE DISCONTINUITY ITERATIONS AND  1 ARE EQUILIBRIUM ITERATIONS.

 TIME INCREMENT COMPLETED   1.00    ,  FRACTION OF STEP COMPLETED  0.300    
 STEP TIME COMPLETED        30.0    ,  TOTAL TIME COMPLETED         30.0    


  INCREMENT    31 STARTS. ATTEMPT NUMBER  1, TIME INCREMENT   1.00    
 
	UNSYMMETRIC NEW DIRECT SPARSE SOLVER RUNNING ON
 	1 HOST x 1 MPI RANK PER HOST x 1 THREAD PER RANK
        NUMBER OF EQUATIONS:  32
        NUMBER OF RHS:        1
        NUMBER OF FLOPS:      2.189e+04
        SOLVER ELAPSED TIME:  0ms

               CONVERGENCE CHECKS FOR EQUILIBRIUM ITERATION     1


 AVERAGE FORCE                      1.628E+04   TIME AVG. FORCE       8.389E+03
 LARGEST SCALED RESIDUAL FORCE      7.804E-13   AT NODE          1   DOF  3
   INSTANCE: CUBE_ASSEMBLY                                                                   
  CORRESPONDING RESIDUAL FORCE      7.804E-13
 LARGEST INCREMENT OF DISP.         1.000E-05   AT NODE          1   DOF  2
   INSTANCE: CUBE_ASSEMBLY                                                                   
 LARGEST CORRECTION TO DISP.       -7.024E-20   AT NODE          1   DOF  3
   INSTANCE: CUBE_ASSEMBLY                                                                   
          THE FORCE     EQUILIBRIUM RESPONSE WAS LINEAR IN THIS INCREMENT

 AVERAGE HEAT FLUX                  3.132E-04   TIME AVG. HEAT FLUX   3.523E-04
 LARGEST RESIDUAL HEAT FLUX        -2.965E-20   AT NODE          2   DOF 11
   INSTANCE: CUBE_ASSEMBLY                                                                   
 LARGEST INCREMENT OF TEMP.         0.186       AT NODE          1   DOF 11
   INSTANCE: CUBE_ASSEMBLY                                                                   
 LARGEST CORRECTION TO TEMP.       -1.243E-03   AT NODE          2   DOF 11
   INSTANCE: CUBE_ASSEMBLY                                                                   
          THE HEAT FLUX EQUILIBRIUM RESPONSE WAS LINEAR IN THIS INCREMENT

 MAXIMUM NON-PRESCRIBED INCREMENT IN TEMPERATURE IS   0.186    

 ITERATION SUMMARY FOR THE INCREMENT:   1 TOTAL ITERATIONS, OF WHICH
   0 ARE SEVERE DISCONTINUITY ITERATIONS AND  1 ARE EQUILIBRIUM ITERATIONS.

 TIME INCREMENT COMPLETED   1.00    ,  FRACTION OF STEP COMPLETED  0.310    
 STEP TIME COMPLETED        31.0    ,  TOTAL TIME COMPLETED         31.0    


  INCREMENT    32 STARTS. ATTEMPT NUMBER  1, TIME INCREMENT   1.00    
 
	UNSYMMETRIC NEW DIRECT SPARSE SOLVER RUNNING ON
 	1 HOST x 1 MPI RANK PER HOST x 1 THREAD PER RANK
        NUMBER OF EQUATIONS:  32
        NUMBER OF RHS:        1
        NUMBER OF FLOPS:      2.189e+04
        SOLVER ELAPSED TIME:  0ms

               CONVERGENCE CHECKS FOR EQUILIBRIUM ITERATION     1


 AVERAGE FORCE                      1.680E+04   TIME AVG. FORCE       8.652E+03
 LARGEST SCALED RESIDUAL FORCE     -1.296E-12   AT NODE          6   DOF  3
   INSTANCE: CUBE_ASSEMBLY                                                                   
  CORRESPONDING RESIDUAL FORCE     -1.296E-12
 LARGEST INCREMENT OF DISP.         1.000E-05   AT NODE          1   DOF  2
   INSTANCE: CUBE_ASSEMBLY                                                                   
 LARGEST CORRECTION TO DISP.       -9.105E-20   AT NODE          1   DOF  1
   INSTANCE: CUBE_ASSEMBLY                                                                   
          THE FORCE     EQUILIBRIUM RESPONSE WAS LINEAR IN THIS INCREMENT

 AVERAGE HEAT FLUX                  3.126E-04   TIME AVG. HEAT FLUX   3.510E-04
 LARGEST RESIDUAL HEAT FLUX        -2.202E-20   AT NODE          6   DOF 11
   INSTANCE: CUBE_ASSEMBLY                                                                   
 LARGEST INCREMENT OF TEMP.         0.185       AT NODE          1   DOF 11
   INSTANCE: CUBE_ASSEMBLY                                                                   
 LARGEST CORRECTION TO TEMP.       -1.229E-03   AT NODE          2   DOF 11
   INSTANCE: CUBE_ASSEMBLY                                                                   
          THE HEAT FLUX EQUILIBRIUM RESPONSE WAS LINEAR IN THIS INCREMENT

 MAXIMUM NON-PRESCRIBED INCREMENT IN TEMPERATURE IS   0.185    

 ITERATION SUMMARY FOR THE INCREMENT:   1 TOTAL ITERATIONS, OF WHICH
   0 ARE SEVERE DISCONTINUITY ITERATIONS AND  1 ARE EQUILIBRIUM ITERATIONS.

 TIME INCREMENT COMPLETED   1.00    ,  FRACTION OF STEP COMPLETED  0.320    
 STEP TIME COMPLETED        32.0    ,  TOTAL TIME COMPLETED         32.0    


  INCREMENT    33 STARTS. ATTEMPT NUMBER  1, TIME INCREMENT   1.00    
 
	UNSYMMETRIC NEW DIRECT SPARSE SOLVER RUNNING ON
 	1 HOST x 1 MPI RANK PER HOST x 1 THREAD PER RANK
        NUMBER OF EQUATIONS:  32
        NUMBER OF RHS:        1
        NUMBER OF FLOPS:      2.189e+04
        SOLVER ELAPSED TIME:  0ms

               CONVERGENCE CHECKS FOR EQUILIBRIUM ITERATION     1


 AVERAGE FORCE                      1.733E+04   TIME AVG. FORCE       8.914E+03
 LARGEST SCALED RESIDUAL FORCE      1.292E-12   AT NODE          2   DOF  3
   INSTANCE: CUBE_ASSEMBLY                                                                   
  CORRESPONDING RESIDUAL FORCE      1.292E-12
 LARGEST INCREMENT OF DISP.         1.000E-05   AT NODE          1   DOF  2
   INSTANCE: CUBE_ASSEMBLY                                                                   
 LARGEST CORRECTION TO DISP.        1.099E-19   AT NODE          1   DOF  1
   INSTANCE: CUBE_ASSEMBLY                                                                   
          THE FORCE     EQUILIBRIUM RESPONSE WAS LINEAR IN THIS INCREMENT

 AVERAGE HEAT FLUX                  3.120E-04   TIME AVG. HEAT FLUX   3.499E-04
 LARGEST RESIDUAL HEAT FLUX        -3.314E-20   AT NODE          1   DOF 11
   INSTANCE: CUBE_ASSEMBLY                                                                   
 LARGEST INCREMENT OF TEMP.         0.184       AT NODE          1   DOF 11
   INSTANCE: CUBE_ASSEMBLY                                                                   
 LARGEST CORRECTION TO TEMP.       -1.214E-03   AT NODE          2   DOF 11
   INSTANCE: CUBE_ASSEMBLY                                                                   
          THE HEAT FLUX EQUILIBRIUM RESPONSE WAS LINEAR IN THIS INCREMENT

 MAXIMUM NON-PRESCRIBED INCREMENT IN TEMPERATURE IS   0.184    

 ITERATION SUMMARY FOR THE INCREMENT:   1 TOTAL ITERATIONS, OF WHICH
   0 ARE SEVERE DISCONTINUITY ITERATIONS AND  1 ARE EQUILIBRIUM ITERATIONS.

 TIME INCREMENT COMPLETED   1.00    ,  FRACTION OF STEP COMPLETED  0.330    
 STEP TIME COMPLETED        33.0    ,  TOTAL TIME COMPLETED         33.0    


  INCREMENT    34 STARTS. ATTEMPT NUMBER  1, TIME INCREMENT   1.00    
 
	UNSYMMETRIC NEW DIRECT SPARSE SOLVER RUNNING ON
 	1 HOST x 1 MPI RANK PER HOST x 1 THREAD PER RANK
        NUMBER OF EQUATIONS:  32
        NUMBER OF RHS:        1
        NUMBER OF FLOPS:      2.189e+04
        SOLVER ELAPSED TIME:  0ms

               CONVERGENCE CHECKS FOR EQUILIBRIUM ITERATION     1


 AVERAGE FORCE                      1.785E+04   TIME AVG. FORCE       9.177E+03
 LARGEST SCALED RESIDUAL FORCE     -7.508E-13   AT NODE          4   DOF  1
   INSTANCE: CUBE_ASSEMBLY                                                                   
  CORRESPONDING RESIDUAL FORCE     -7.508E-13
 LARGEST INCREMENT OF DISP.         1.000E-05   AT NODE          1   DOF  2
   INSTANCE: CUBE_ASSEMBLY                                                                   
 LARGEST CORRECTION TO DISP.       -6.162E-20   AT NODE          1   DOF  1
   INSTANCE: CUBE_ASSEMBLY                                                                   
          THE FORCE     EQUILIBRIUM RESPONSE WAS LINEAR IN THIS INCREMENT

 AVERAGE HEAT FLUX                  3.114E-04   TIME AVG. HEAT FLUX   3.487E-04
 LARGEST RESIDUAL HEAT FLUX         2.626E-20   AT NODE          4   DOF 11
   INSTANCE: CUBE_ASSEMBLY                                                                   
 LARGEST INCREMENT OF TEMP.         0.184       AT NODE          1   DOF 11
   INSTANCE: CUBE_ASSEMBLY                                                                   
 LARGEST CORRECTION TO TEMP.       -1.200E-03   AT NODE          2   DOF 11
   INSTANCE: CUBE_ASSEMBLY                                                                   
          THE HEAT FLUX EQUILIBRIUM RESPONSE WAS LINEAR IN THIS INCREMENT

 MAXIMUM NON-PRESCRIBED INCREMENT IN TEMPERATURE IS   0.184    

 ITERATION SUMMARY FOR THE INCREMENT:   1 TOTAL ITERATIONS, OF WHICH
   0 ARE SEVERE DISCONTINUITY ITERATIONS AND  1 ARE EQUILIBRIUM ITERATIONS.

 TIME INCREMENT COMPLETED   1.00    ,  FRACTION OF STEP COMPLETED  0.340    
 STEP TIME COMPLETED        34.0    ,  TOTAL TIME COMPLETED         34.0    


  INCREMENT    35 STARTS. ATTEMPT NUMBER  1, TIME INCREMENT   1.00    
 
	UNSYMMETRIC NEW DIRECT SPARSE SOLVER RUNNING ON
 	1 HOST x 1 MPI RANK PER HOST x 1 THREAD PER RANK
        NUMBER OF EQUATIONS:  32
        NUMBER OF RHS:        1
        NUMBER OF FLOPS:      2.189e+04
        SOLVER ELAPSED TIME:  0ms

               CONVERGENCE CHECKS FOR EQUILIBRIUM ITERATION     1


 AVERAGE FORCE                      1.838E+04   TIME AVG. FORCE       9.440E+03
 LARGEST SCALED RESIDUAL FORCE      1.312E-12   AT NODE          1   DOF  3
   INSTANCE: CUBE_ASSEMBLY                                                                   
  CORRESPONDING RESIDUAL FORCE      1.312E-12
 LARGEST INCREMENT OF DISP.         1.000E-05   AT NODE          1   DOF  2
   INSTANCE: CUBE_ASSEMBLY                                                                   
[...]


 AVERAGE FORCE                      4.830E+04   TIME AVG. FORCE       2.441E+04
 LARGEST SCALED RESIDUAL FORCE      1.152E-12   AT NODE          3   DOF  1
   INSTANCE: CUBE_ASSEMBLY                                                                   
  CORRESPONDING RESIDUAL FORCE      1.152E-12
 LARGEST INCREMENT OF DISP.         1.000E-05   AT NODE          1   DOF  2
   INSTANCE: CUBE_ASSEMBLY                                                                   
 LARGEST CORRECTION TO DISP.        1.440E-19   AT NODE          1   DOF  3
   INSTANCE: CUBE_ASSEMBLY                                                                   
          THE FORCE     EQUILIBRIUM RESPONSE WAS LINEAR IN THIS INCREMENT

 AVERAGE HEAT FLUX                  2.811E-04   TIME AVG. HEAT FLUX   3.151E-04
 LARGEST RESIDUAL HEAT FLUX        -1.503E-20   AT NODE          4   DOF 11
   INSTANCE: CUBE_ASSEMBLY                                                                   
 LARGEST INCREMENT OF TEMP.         0.148       AT NODE          4   DOF 11
   INSTANCE: CUBE_ASSEMBLY                                                                   
 LARGEST CORRECTION TO TEMP.       -6.081E-04   AT NODE          2   DOF 11
   INSTANCE: CUBE_ASSEMBLY                                                                   
          THE HEAT FLUX EQUILIBRIUM RESPONSE WAS LINEAR IN THIS INCREMENT

 MAXIMUM NON-PRESCRIBED INCREMENT IN TEMPERATURE IS   0.148    

 ITERATION SUMMARY FOR THE INCREMENT:   1 TOTAL ITERATIONS, OF WHICH
   0 ARE SEVERE DISCONTINUITY ITERATIONS AND  1 ARE EQUILIBRIUM ITERATIONS.

 TIME INCREMENT COMPLETED   1.00    ,  FRACTION OF STEP COMPLETED  0.920    
 STEP TIME COMPLETED        92.0    ,  TOTAL TIME COMPLETED         92.0    


  INCREMENT    93 STARTS. ATTEMPT NUMBER  1, TIME INCREMENT   1.00    
 
	UNSYMMETRIC NEW DIRECT SPARSE SOLVER RUNNING ON
 	1 HOST x 1 MPI RANK PER HOST x 1 THREAD PER RANK
        NUMBER OF EQUATIONS:  32
        NUMBER OF RHS:        1
        NUMBER OF FLOPS:      2.189e+04
        SOLVER ELAPSED TIME:  1ms

               CONVERGENCE CHECKS FOR EQUILIBRIUM ITERATION     1


 AVERAGE FORCE                      4.883E+04   TIME AVG. FORCE       2.467E+04
 LARGEST SCALED RESIDUAL FORCE     -3.659E-12   AT NODE          2   DOF  3
   INSTANCE: CUBE_ASSEMBLY                                                                   
  CORRESPONDING RESIDUAL FORCE     -3.659E-12
 LARGEST INCREMENT OF DISP.         1.000E-05   AT NODE          1   DOF  2
   INSTANCE: CUBE_ASSEMBLY                                                                   
 LARGEST CORRECTION TO DISP.       -1.555E-19   AT NODE          4   DOF  1
   INSTANCE: CUBE_ASSEMBLY                                                                   
          THE FORCE     EQUILIBRIUM RESPONSE WAS LINEAR IN THIS INCREMENT

 AVERAGE HEAT FLUX                  2.807E-04   TIME AVG. HEAT FLUX   3.147E-04
 LARGEST RESIDUAL HEAT FLUX         3.198E-20   AT NODE          3   DOF 11
   INSTANCE: CUBE_ASSEMBLY                                                                   
 LARGEST INCREMENT OF TEMP.         0.148       AT NODE          1   DOF 11
   INSTANCE: CUBE_ASSEMBLY                                                                   
 LARGEST CORRECTION TO TEMP.       -6.010E-04   AT NODE          2   DOF 11
   INSTANCE: CUBE_ASSEMBLY                                                                   
          THE HEAT FLUX EQUILIBRIUM RESPONSE WAS LINEAR IN THIS INCREMENT

 MAXIMUM NON-PRESCRIBED INCREMENT IN TEMPERATURE IS   0.148    

 ITERATION SUMMARY FOR THE INCREMENT:   1 TOTAL ITERATIONS, OF WHICH
   0 ARE SEVERE DISCONTINUITY ITERATIONS AND  1 ARE EQUILIBRIUM ITERATIONS.

 TIME INCREMENT COMPLETED   1.00    ,  FRACTION OF STEP COMPLETED  0.930    
 STEP TIME COMPLETED        93.0    ,  TOTAL TIME COMPLETED         93.0    


  INCREMENT    94 STARTS. ATTEMPT NUMBER  1, TIME INCREMENT   1.00    
 
	UNSYMMETRIC NEW DIRECT SPARSE SOLVER RUNNING ON
 	1 HOST x 1 MPI RANK PER HOST x 1 THREAD PER RANK
        NUMBER OF EQUATIONS:  32
        NUMBER OF RHS:        1
        NUMBER OF FLOPS:      2.189e+04
        SOLVER ELAPSED TIME:  0ms

               CONVERGENCE CHECKS FOR EQUILIBRIUM ITERATION     1


 AVERAGE FORCE                      4.935E+04   TIME AVG. FORCE       2.493E+04
 LARGEST SCALED RESIDUAL FORCE     -2.506E-12   AT NODE          3   DOF  1
   INSTANCE: CUBE_ASSEMBLY                                                                   
  CORRESPONDING RESIDUAL FORCE     -2.506E-12
 LARGEST INCREMENT OF DISP.         1.000E-05   AT NODE          1   DOF  2
   INSTANCE: CUBE_ASSEMBLY                                                                   
 LARGEST CORRECTION TO DISP.        2.225E-19   AT NODE          4   DOF  1
   INSTANCE: CUBE_ASSEMBLY                                                                   
          THE FORCE     EQUILIBRIUM RESPONSE WAS LINEAR IN THIS INCREMENT

 AVERAGE HEAT FLUX                  2.802E-04   TIME AVG. HEAT FLUX   3.144E-04
 LARGEST RESIDUAL HEAT FLUX         9.741E-21   AT NODE          1   DOF 11
   INSTANCE: CUBE_ASSEMBLY                                                                   
 LARGEST INCREMENT OF TEMP.         0.147       AT NODE          4   DOF 11
   INSTANCE: CUBE_ASSEMBLY                                                                   
 LARGEST CORRECTION TO TEMP.       -5.939E-04   AT NODE          2   DOF 11
   INSTANCE: CUBE_ASSEMBLY                                                                   
          THE HEAT FLUX EQUILIBRIUM RESPONSE WAS LINEAR IN THIS INCREMENT

 MAXIMUM NON-PRESCRIBED INCREMENT IN TEMPERATURE IS   0.147    

 ITERATION SUMMARY FOR THE INCREMENT:   1 TOTAL ITERATIONS, OF WHICH
   0 ARE SEVERE DISCONTINUITY ITERATIONS AND  1 ARE EQUILIBRIUM ITERATIONS.

 TIME INCREMENT COMPLETED   1.00    ,  FRACTION OF STEP COMPLETED  0.940    
 STEP TIME COMPLETED        94.0    ,  TOTAL TIME COMPLETED         94.0    


  INCREMENT    95 STARTS. ATTEMPT NUMBER  1, TIME INCREMENT   1.00    
 
	UNSYMMETRIC NEW DIRECT SPARSE SOLVER RUNNING ON
 	1 HOST x 1 MPI RANK PER HOST x 1 THREAD PER RANK
        NUMBER OF EQUATIONS:  32
        NUMBER OF RHS:        1
        NUMBER OF FLOPS:      2.189e+04
        SOLVER ELAPSED TIME:  0ms

               CONVERGENCE CHECKS FOR EQUILIBRIUM ITERATION     1


 AVERAGE FORCE                      4.988E+04   TIME AVG. FORCE       2.520E+04
 LARGEST SCALED RESIDUAL FORCE      3.209E-12   AT NODE          2   DOF  3
   INSTANCE: CUBE_ASSEMBLY                                                                   
  CORRESPONDING RESIDUAL FORCE      3.209E-12
 LARGEST INCREMENT OF DISP.         1.000E-05   AT NODE          1   DOF  2
   INSTANCE: CUBE_ASSEMBLY                                                                   
 LARGEST CORRECTION TO DISP.        1.084E-19   AT NODE          1   DOF  2
   INSTANCE: CUBE_ASSEMBLY                                                                   
          THE FORCE     EQUILIBRIUM RESPONSE WAS LINEAR IN THIS INCREMENT

 AVERAGE HEAT FLUX                  2.797E-04   TIME AVG. HEAT FLUX   3.140E-04
 LARGEST RESIDUAL HEAT FLUX         2.287E-20   AT NODE          8   DOF 11
   INSTANCE: CUBE_ASSEMBLY                                                                   
 LARGEST INCREMENT OF TEMP.         0.147       AT NODE          1   DOF 11
   INSTANCE: CUBE_ASSEMBLY                                                                   
 LARGEST CORRECTION TO TEMP.       -5.870E-04   AT NODE          2   DOF 11
   INSTANCE: CUBE_ASSEMBLY                                                                   
          THE HEAT FLUX EQUILIBRIUM RESPONSE WAS LINEAR IN THIS INCREMENT

 MAXIMUM NON-PRESCRIBED INCREMENT IN TEMPERATURE IS   0.147    

 ITERATION SUMMARY FOR THE INCREMENT:   1 TOTAL ITERATIONS, OF WHICH
   0 ARE SEVERE DISCONTINUITY ITERATIONS AND  1 ARE EQUILIBRIUM ITERATIONS.

 TIME INCREMENT COMPLETED   1.00    ,  FRACTION OF STEP COMPLETED  0.950    
 STEP TIME COMPLETED        95.0    ,  TOTAL TIME COMPLETED         95.0    


  INCREMENT    96 STARTS. ATTEMPT NUMBER  1, TIME INCREMENT   1.00    
 
	UNSYMMETRIC NEW DIRECT SPARSE SOLVER RUNNING ON
 	1 HOST x 1 MPI RANK PER HOST x 1 THREAD PER RANK
        NUMBER OF EQUATIONS:  32
        NUMBER OF RHS:        1
        NUMBER OF FLOPS:      2.189e+04
        SOLVER ELAPSED TIME:  0ms

               CONVERGENCE CHECKS FOR EQUILIBRIUM ITERATION     1


 AVERAGE FORCE                      5.040E+04   TIME AVG. FORCE       2.546E+04
 LARGEST SCALED RESIDUAL FORCE      1.460E-12   AT NODE          1   DOF  3
   INSTANCE: CUBE_ASSEMBLY                                                                   
  CORRESPONDING RESIDUAL FORCE      1.460E-12
 LARGEST INCREMENT OF DISP.         1.000E-05   AT NODE          1   DOF  2
   INSTANCE: CUBE_ASSEMBLY                                                                   
 LARGEST CORRECTION TO DISP.       -1.440E-19   AT NODE          1   DOF  3
   INSTANCE: CUBE_ASSEMBLY                                                                   
          THE FORCE     EQUILIBRIUM RESPONSE WAS LINEAR IN THIS INCREMENT

 AVERAGE HEAT FLUX                  2.793E-04   TIME AVG. HEAT FLUX   3.136E-04
 LARGEST RESIDUAL HEAT FLUX        -3.319E-20   AT NODE          1   DOF 11
   INSTANCE: CUBE_ASSEMBLY                                                                   
 LARGEST INCREMENT OF TEMP.         0.146       AT NODE          1   DOF 11
   INSTANCE: CUBE_ASSEMBLY                                                                   
 LARGEST CORRECTION TO TEMP.       -5.801E-04   AT NODE          2   DOF 11
   INSTANCE: CUBE_ASSEMBLY                                                                   
          THE HEAT FLUX EQUILIBRIUM RESPONSE WAS LINEAR IN THIS INCREMENT

 MAXIMUM NON-PRESCRIBED INCREMENT IN TEMPERATURE IS   0.146    

 ITERATION SUMMARY FOR THE INCREMENT:   1 TOTAL ITERATIONS, OF WHICH
   0 ARE SEVERE DISCONTINUITY ITERATIONS AND  1 ARE EQUILIBRIUM ITERATIONS.

 TIME INCREMENT COMPLETED   1.00    ,  FRACTION OF STEP COMPLETED  0.960    
 STEP TIME COMPLETED        96.0    ,  TOTAL TIME COMPLETED         96.0    


  INCREMENT    97 STARTS. ATTEMPT NUMBER  1, TIME INCREMENT   1.00    
 
	UNSYMMETRIC NEW DIRECT SPARSE SOLVER RUNNING ON
 	1 HOST x 1 MPI RANK PER HOST x 1 THREAD PER RANK
        NUMBER OF EQUATIONS:  32
        NUMBER OF RHS:        1
        NUMBER OF FLOPS:      2.189e+04
        SOLVER ELAPSED TIME:  0ms

               CONVERGENCE CHECKS FOR EQUILIBRIUM ITERATION     1


 AVERAGE FORCE                      5.093E+04   TIME AVG. FORCE       2.572E+04
 LARGEST SCALED RESIDUAL FORCE     -4.549E-12   AT NODE          1   DOF  3
   INSTANCE: CUBE_ASSEMBLY                                                                   
  CORRESPONDING RESIDUAL FORCE     -4.549E-12
 LARGEST INCREMENT OF DISP.         1.000E-05   AT NODE          1   DOF  2
   INSTANCE: CUBE_ASSEMBLY                                                                   
 LARGEST CORRECTION TO DISP.        1.713E-19   AT NODE          1   DOF  3
   INSTANCE: CUBE_ASSEMBLY                                                                   
          THE FORCE     EQUILIBRIUM RESPONSE WAS LINEAR IN THIS INCREMENT

 AVERAGE HEAT FLUX                  2.788E-04   TIME AVG. HEAT FLUX   3.133E-04
 LARGEST RESIDUAL HEAT FLUX         3.695E-20   AT NODE          3   DOF 11
   INSTANCE: CUBE_ASSEMBLY                                                                   
 LARGEST INCREMENT OF TEMP.         0.146       AT NODE          4   DOF 11
   INSTANCE: CUBE_ASSEMBLY                                                                   
 LARGEST CORRECTION TO TEMP.       -5.733E-04   AT NODE          2   DOF 11
   INSTANCE: CUBE_ASSEMBLY                                                                   
          THE HEAT FLUX EQUILIBRIUM RESPONSE WAS LINEAR IN THIS INCREMENT

 MAXIMUM NON-PRESCRIBED INCREMENT IN TEMPERATURE IS   0.146    

 ITERATION SUMMARY FOR THE INCREMENT:   1 TOTAL ITERATIONS, OF WHICH
   0 ARE SEVERE DISCONTINUITY ITERATIONS AND  1 ARE EQUILIBRIUM ITERATIONS.

 TIME INCREMENT COMPLETED   1.00    ,  FRACTION OF STEP COMPLETED  0.970    
 STEP TIME COMPLETED        97.0    ,  TOTAL TIME COMPLETED         97.0    


  INCREMENT    98 STARTS. ATTEMPT NUMBER  1, TIME INCREMENT   1.00    
 
	UNSYMMETRIC NEW DIRECT SPARSE SOLVER RUNNING ON
 	1 HOST x 1 MPI RANK PER HOST x 1 THREAD PER RANK
        NUMBER OF EQUATIONS:  32
        NUMBER OF RHS:        1
        NUMBER OF FLOPS:      2.189e+04
        SOLVER ELAPSED TIME:  0ms

               CONVERGENCE CHECKS FOR EQUILIBRIUM ITERATION     1


 AVERAGE FORCE                      5.145E+04   TIME AVG. FORCE       2.598E+04
 LARGEST SCALED RESIDUAL FORCE      5.959E-12   AT NODE          6   DOF  3
   INSTANCE: CUBE_ASSEMBLY                                                                   
  CORRESPONDING RESIDUAL FORCE      5.959E-12
 LARGEST INCREMENT OF DISP.         1.000E-05   AT NODE          1   DOF  2
   INSTANCE: CUBE_ASSEMBLY                                                                   
 LARGEST CORRECTION TO DISP.       -3.488E-19   AT NODE          6   DOF  3
   INSTANCE: CUBE_ASSEMBLY                                                                   
          THE FORCE     EQUILIBRIUM RESPONSE WAS LINEAR IN THIS INCREMENT

 AVERAGE HEAT FLUX                  2.784E-04   TIME AVG. HEAT FLUX   3.129E-04
 LARGEST RESIDUAL HEAT FLUX        -2.742E-20   AT NODE          1   DOF 11
   INSTANCE: CUBE_ASSEMBLY                                                                   
 LARGEST INCREMENT OF TEMP.         0.145       AT NODE          1   DOF 11
   INSTANCE: CUBE_ASSEMBLY                                                                   
 LARGEST CORRECTION TO TEMP.       -5.666E-04   AT NODE          2   DOF 11
   INSTANCE: CUBE_ASSEMBLY                                                                   
          THE HEAT FLUX EQUILIBRIUM RESPONSE WAS LINEAR IN THIS INCREMENT

 MAXIMUM NON-PRESCRIBED INCREMENT IN TEMPERATURE IS   0.145    

 ITERATION SUMMARY FOR THE INCREMENT:   1 TOTAL ITERATIONS, OF WHICH
   0 ARE SEVERE DISCONTINUITY ITERATIONS AND  1 ARE EQUILIBRIUM ITERATIONS.

 TIME INCREMENT COMPLETED   1.00    ,  FRACTION OF STEP COMPLETED  0.980    
 STEP TIME COMPLETED        98.0    ,  TOTAL TIME COMPLETED         98.0    


  INCREMENT    99 STARTS. ATTEMPT NUMBER  1, TIME INCREMENT   1.00    
 
	UNSYMMETRIC NEW DIRECT SPARSE SOLVER RUNNING ON
 	1 HOST x 1 MPI RANK PER HOST x 1 THREAD PER RANK
        NUMBER OF EQUATIONS:  32
        NUMBER OF RHS:        1
        NUMBER OF FLOPS:      2.189e+04
        SOLVER ELAPSED TIME:  0ms

               CONVERGENCE CHECKS FOR EQUILIBRIUM ITERATION     1


 AVERAGE FORCE                      5.198E+04   TIME AVG. FORCE       2.625E+04
 LARGEST SCALED RESIDUAL FORCE     -2.450E-12   AT NODE          2   DOF  3
   INSTANCE: CUBE_ASSEMBLY                                                                   
  CORRESPONDING RESIDUAL FORCE     -2.450E-12
 LARGEST INCREMENT OF DISP.         1.000E-05   AT NODE          1   DOF  2
   INSTANCE: CUBE_ASSEMBLY                                                                   
 LARGEST CORRECTION TO DISP.        3.964E-19   AT NODE          6   DOF  3
   INSTANCE: CUBE_ASSEMBLY                                                                   
          THE FORCE     EQUILIBRIUM RESPONSE WAS LINEAR IN THIS INCREMENT

 AVERAGE HEAT FLUX                  2.779E-04   TIME AVG. HEAT FLUX   3.126E-04
 LARGEST RESIDUAL HEAT FLUX        -2.626E-20   AT NODE          3   DOF 11
   INSTANCE: CUBE_ASSEMBLY                                                                   
 LARGEST INCREMENT OF TEMP.         0.145       AT NODE          4   DOF 11
   INSTANCE: CUBE_ASSEMBLY                                                                   
 LARGEST CORRECTION TO TEMP.       -5.599E-04   AT NODE          2   DOF 11
   INSTANCE: CUBE_ASSEMBLY                                                                   
          THE HEAT FLUX EQUILIBRIUM RESPONSE WAS LINEAR IN THIS INCREMENT

 MAXIMUM NON-PRESCRIBED INCREMENT IN TEMPERATURE IS   0.145    

 ITERATION SUMMARY FOR THE INCREMENT:   1 TOTAL ITERATIONS, OF WHICH
   0 ARE SEVERE DISCONTINUITY ITERATIONS AND  1 ARE EQUILIBRIUM ITERATIONS.

 TIME INCREMENT COMPLETED   1.00    ,  FRACTION OF STEP COMPLETED  0.990    
 STEP TIME COMPLETED        99.0    ,  TOTAL TIME COMPLETED         99.0    


  INCREMENT   100 STARTS. ATTEMPT NUMBER  1, TIME INCREMENT   1.00    
 
	UNSYMMETRIC NEW DIRECT SPARSE SOLVER RUNNING ON
 	1 HOST x 1 MPI RANK PER HOST x 1 THREAD PER RANK
        NUMBER OF EQUATIONS:  32
        NUMBER OF RHS:        1
        NUMBER OF FLOPS:      2.189e+04
        SOLVER ELAPSED TIME:  0ms

               CONVERGENCE CHECKS FOR EQUILIBRIUM ITERATION     1


 AVERAGE FORCE                      5.250E+04   TIME AVG. FORCE       2.651E+04
 LARGEST SCALED RESIDUAL FORCE     -3.056E-12   AT NODE          1   DOF  3
   INSTANCE: CUBE_ASSEMBLY                                                                   
  CORRESPONDING RESIDUAL FORCE     -3.056E-12
 LARGEST INCREMENT OF DISP.         1.000E-05   AT NODE          1   DOF  2
   INSTANCE: CUBE_ASSEMBLY                                                                   
 LARGEST CORRECTION TO DISP.       -1.471E-19   AT NODE          6   DOF  3
   INSTANCE: CUBE_ASSEMBLY                                                                   
          THE FORCE     EQUILIBRIUM RESPONSE WAS LINEAR IN THIS INCREMENT

 AVERAGE HEAT FLUX                  2.775E-04   TIME AVG. HEAT FLUX   3.122E-04
 LARGEST RESIDUAL HEAT FLUX        -2.499E-20   AT NODE          1   DOF 11
   INSTANCE: CUBE_ASSEMBLY                                                                   
 LARGEST INCREMENT OF TEMP.         0.144       AT NODE          1   DOF 11
   INSTANCE: CUBE_ASSEMBLY                                                                   
 LARGEST CORRECTION TO TEMP.       -5.534E-04   AT NODE          2   DOF 11
   INSTANCE: CUBE_ASSEMBLY                                                                   
          THE HEAT FLUX EQUILIBRIUM RESPONSE WAS LINEAR IN THIS INCREMENT

 MAXIMUM NON-PRESCRIBED INCREMENT IN TEMPERATURE IS   0.144    

 ITERATION SUMMARY FOR THE INCREMENT:   1 TOTAL ITERATIONS, OF WHICH
   0 ARE SEVERE DISCONTINUITY ITERATIONS AND  1 ARE EQUILIBRIUM ITERATIONS.

 TIME INCREMENT COMPLETED   1.00    ,  FRACTION OF STEP COMPLETED   1.00    
 STEP TIME COMPLETED        100.    ,  TOTAL TIME COMPLETED         100.    


          THE ANALYSIS HAS BEEN COMPLETED



     ANALYSIS SUMMARY:
     TOTAL OF        100  INCREMENTS
                       0  CUTBACKS IN AUTOMATIC INCREMENTATION
                     100  ITERATIONS INCLUDING CONTACT ITERATIONS IF PRESENT
                     100  PASSES THROUGH THE EQUATION SOLVER OF WHICH 
                       1  INVOLVE MATRIX DECOMPOSITION, INCLUDING
                       0  DECOMPOSITION(S) OF THE MASS MATRIX
                       1  REORDERING OF EQUATIONS TO MINIMIZE WAVEFRONT
                       0  ADDITIONAL RESIDUAL EVALUATIONS FOR LINE SEARCHES
                       0  ADDITIONAL OPERATOR EVALUATIONS FOR LINE SEARCHES
                       1  WARNING MESSAGES DURING USER INPUT PROCESSING
                       0  WARNING MESSAGES DURING ANALYSIS
                       0  ANALYSIS WARNINGS ARE NUMERICAL PROBLEM MESSAGES
                       0  ANALYSIS WARNINGS ARE NEGATIVE EIGENVALUE MESSAGES
                       0  ERROR MESSAGES



     JOB TIME SUMMARY
       USER TIME (SEC)      =     0.50    
       SYSTEM TIME (SEC)    =     0.60    
       TOTAL CPU TIME (SEC) =      1.1    
       WALLCLOCK TIME (SEC) =            2
       MEMORY PEAK (GB)     =            0
