1

   Abaqus 2023.HF4                                  Date 01-Apr-2025   Time 12:34:12
   For use by AALTO UNIVERSITY under license from Dassault Systemes or its subsidiary.

                                                                                 
                                                                                 
 STEP    1     INCREMENT     1     STEP TIME    0.00    


                        S T E P       1     C O U P L E D - T E M P E R A T U R E - D I S P L A C E M E N T   A N A L Y S I S


                                                                                          

     AUTOMATIC TIME CONTROL WITH -
          A SUGGESTED INITIAL TIME INCREMENT OF                 1.00    
          AND A TOTAL TIME PERIOD OF                            100.    
          THE MINIMUM TIME INCREMENT ALLOWED IS                1.000E-03
          THE MAXIMUM TIME INCREMENT ALLOWED IS                 1.00    

          CREEP AND SWELLING EFFECTS ARE OMITTED IN THIS STEP

     THE SIZE OF THE TIME INCREMENT IS CONTROLLED BY -
          THE TEMPERATURE CHANGE PER INCREMENT NOT EXCEEDING            100.    
          THE RATE DEPENDENCY WILL BE CONSIDERED IN THIS STEP

          CREEP AND SWELLING EFFECTS WILL BE IGNORED.

 CONVERGENCE TOLERANCE PARAMETERS FOR FORCE    
     CRITERION FOR RESIDUAL FORCE     FOR A NONLINEAR PROBLEM          5.000E-03
     CRITERION FOR DISP.    CORRECTION IN A NONLINEAR PROBLEM          1.000E-02
     INITIAL VALUE OF TIME AVERAGE FORCE                               1.000E-02
     AVERAGE FORCE     IS TIME AVERAGE FORCE    
     ALTERNATE CRIT. FOR RESIDUAL FORCE     FOR A NONLINEAR PROBLEM    2.000E-02
     CRITERION FOR ZERO FORCE     RELATIVE TO TIME AVRG. FORCE         1.000E-05
     CRITERION FOR RESIDUAL FORCE     WHEN THERE IS ZERO FLUX          1.000E-05
     CRITERION FOR DISP.    CORRECTION WHEN THERE IS ZERO FLUX         1.000E-03
     CRITERION FOR RESIDUAL FORCE     FOR A LINEAR INCREMENT           1.000E-08
     FIELD CONVERSION RATIO                                             1.00    
     CRITERION FOR ZERO FORCE     REL. TO TIME AVRG. MAX. FORCE        1.000E-05
     CRITERION FOR ZERO DISP.    RELATIVE TO CHARACTERISTIC LENGTH     1.000E-08

 CONVERGENCE TOLERANCE PARAMETERS FOR HEAT FLUX
     CRITERION FOR RESIDUAL HEAT FLUX FOR A NONLINEAR PROBLEM          5.000E-03
     CRITERION FOR TEMP.    CORRECTION IN A NONLINEAR PROBLEM          1.000E-02
     INITIAL VALUE OF TIME AVERAGE HEAT FLUX                           1.000E-02
     AVERAGE HEAT FLUX IS TIME AVERAGE HEAT FLUX
     ALTERNATE CRIT. FOR RESIDUAL HEAT FLUX FOR A NONLINEAR PROBLEM    2.000E-02
     CRITERION FOR ZERO HEAT FLUX RELATIVE TO TIME AVRG. HEAT FLUX     1.000E-05
     CRITERION FOR RESIDUAL HEAT FLUX WHEN THERE IS ZERO FLUX          1.000E-05
     CRITERION FOR TEMP.    CORRECTION WHEN THERE IS ZERO FLUX         1.000E-03
     CRITERION FOR RESIDUAL HEAT FLUX FOR A LINEAR INCREMENT           1.000E-08
     FIELD CONVERSION RATIO                                             1.00    
     CRITERION FOR ZERO HEAT FLUX REL. TO TIME AVRG. MAX. HEAT FLUX    1.000E-05

     VOLUMETRIC STRAIN COMPATIBILITY TOLERANCE FOR HYBRID SOLIDS       1.000E-05
     AXIAL STRAIN COMPATIBILITY TOLERANCE FOR HYBRID BEAMS             1.000E-05
     TRANS. SHEAR STRAIN COMPATIBILITY TOLERANCE FOR HYBRID BEAMS      1.000E-05
     SOFT CONTACT CONSTRAINT COMPATIBILITY TOLERANCE FOR P>P0          5.000E-03
     SOFT CONTACT CONSTRAINT COMPATIBILITY TOLERANCE FOR P=0.0         0.100    
     CONTACT FORCE ERROR TOLERANCE FOR CONVERT SDI=YES                 1.00    
     DISPLACEMENT COMPATIBILITY TOLERANCE FOR DCOUP ELEMENTS           1.000E-05
     ROTATION COMPATIBILITY TOLERANCE FOR DCOUP ELEMENTS               1.000E-05

 EQUILIBRIUM WILL BE CHECKED FOR SEVERE DISCONTINUITY ITERATIONS

 TIME INCREMENTATION CONTROL PARAMETERS:
     FIRST EQUILIBRIUM ITERATION FOR CONSECUTIVE DIVERGENCE CHECK              4
     EQUILIBRIUM ITERATION AT WHICH LOG. CONVERGENCE RATE CHECK BEGINS         8
     EQUILIBRIUM ITERATION AFTER WHICH ALTERNATE RESIDUAL IS USED              9
     MAXIMUM EQUILIBRIUM ITERATIONS ALLOWED                                   16
     EQUILIBRIUM ITERATION COUNT FOR CUT-BACK IN NEXT INCREMENT               10
     MAXIMUM EQUILIB. ITERS IN TWO INCREMENTS FOR TIME INCREMENT INCREASE      4
     MAXIMUM ITERATIONS FOR SEVERE DISCONTINUITIES                            50
     MAXIMUM ATTEMPTS ALLOWED IN AN INCREMENT                                  5
     MAXIMUM DISCON. ITERS IN TWO INCREMENTS FOR TIME INCREMENT INCREASE      50
     MAXIMUM CONTACT AUGMENTATIONS FOR *SURFACE BEHAVIOR,AUGMENTED LAGRANGE   50
     CONSECUTIVE INCS MEETING TIME INTEG. TOL. FOR TIME INC. INCREASE          3
     CUT-BACK FACTOR AFTER DIVERGENCE                                 0.2500    
     CUT-BACK FACTOR FOR TOO SLOW CONVERGENCE                         0.5000    
     CUT-BACK FACTOR AFTER TOO MANY EQUILIBRIUM ITERATIONS            0.7500    
     CUT-BACK FACTOR AFTER TOO MANY SEVERE DISCONTINUITY ITERATIONS   0.2500    
     CUT-BACK FACTOR AFTER PROBLEMS IN ELEMENT ASSEMBLY               0.2500    
     INCREASE FACTOR AFTER TWO INCREMENTS THAT CONVERGE QUICKLY        1.500    
     MAX. TIME INCREMENT INCREASE FACTOR ALLOWED                       1.500    
     MAX. TIME INCREMENT INCREASE FACTOR ALLOWED (DYNAMICS)            1.250    
     MAX. TIME INCREMENT INCREASE FACTOR ALLOWED (DIFFUSION)           2.000    
     MINIMUM TIME INCREMENT RATIO FOR EXTRAPOLATION TO OCCUR          0.1000    
     CUT-BACK FACTOR WHEN TIME INTEGRATION ACCURACY TOL. EXCEEDED     0.8500    
     MAX. RATIO OF TIME INTEG. MEASURE TO TOL. FOR TIME INC. INCREASE 0.7500    
     INCREASE FACTOR FOR TIME INCREMENT WHEN POSSIBLE                 0.8000    
     MIN. TIME INC. INCREASE FACTOR IN LINEAR TRANSIENT PROBLEMS      0.9500    
     MAX. RATIO OF TIME INCREMENT TO STABILITY LIMIT                   1.000    
     FRACTION OF STABILITY LIMIT FOR NEW TIME INCREMENT               0.9500    
     TIME INCREMENT INCREASE FACTOR BEFORE A TIME POINT                1.000    
     GLOBAL STABILIZATION CONTROL IS NOT USED

          PRINT OF INCREMENT NUMBER, TIME, ETC., EVERY    1  INCREMENTS

     THE MAXIMUM NUMBER OF INCREMENTS IN THIS STEP IS                     100

          LARGE DISPLACEMENT THEORY WILL BE USED

          UNSYMMETRIC MATRIX STORAGE AND SOLUTION WILL BE USED

     LINEAR EXTRAPOLATION WILL BE USED

     CHARACTERISTIC ELEMENT LENGTH     1.000E-03

     DETAILS REGARDING ACTUAL SOLUTION WAVEFRONT REQUESTED

     DETAILED OUTPUT OF DIAGNOSTICS TO DATABASE REQUESTED

     PRINT OF INCREMENT NUMBER, TIME, ETC., TO THE MESSAGE FILE EVERY     1  INCREMENTS

     COLLECTING MODEL CONSTRAINT INFORMATION FOR OVERCONSTRAINT CHECKS

     COLLECTING STEP CONSTRAINT INFORMATION FOR OVERCONSTRAINT CHECKS


  INCREMENT     1 STARTS. ATTEMPT NUMBER  1, TIME INCREMENT   1.00    
 
	UNSYMMETRIC NEW DIRECT SPARSE SOLVER RUNNING ON
 	1 HOST x 1 MPI RANK PER HOST x 1 THREAD PER RANK
        NUMBER OF EQUATIONS:  32
        NUMBER OF RHS:        1
        NUMBER OF FLOPS:      2.189e+04
        SOLVER ELAPSED TIME:  36ms

               CONVERGENCE CHECKS FOR EQUILIBRIUM ITERATION     1


 AVERAGE FORCE                       0.00       TIME AVG. FORCE       1.000E-02
 ALL FORCE     RESIDUALS ARE ZERO
 ALL DISP.    INCREMENTS ARE ZERO
 ALL CORRECTION TO DISP.    ARE ZERO
          THERE IS ZERO FORCE     EVERYWHERE

 AVERAGE HEAT FLUX                  1.987E-02   TIME AVG. HEAT FLUX   1.987E-02
 LARGEST RESIDUAL HEAT FLUX        -7.551E-20   AT NODE          8   DOF 11
   INSTANCE: CUBE_ASSEMBLY                                                                   
 LARGEST INCREMENT OF TEMP.          100.       AT NODE          1   DOF 11
   INSTANCE: CUBE_ASSEMBLY                                                                   
 LARGEST CORRECTION TO TEMP.         100.       AT NODE          1   DOF 11
   INSTANCE: CUBE_ASSEMBLY                                                                   
          THE HEAT FLUX EQUILIBRIUM RESPONSE WAS LINEAR IN THIS INCREMENT

 MAXIMUM NON-PRESCRIBED INCREMENT IN TEMPERATURE IS   0.629    

 ITERATION SUMMARY FOR THE INCREMENT:   1 TOTAL ITERATIONS, OF WHICH
   0 ARE SEVERE DISCONTINUITY ITERATIONS AND  1 ARE EQUILIBRIUM ITERATIONS.

 TIME INCREMENT COMPLETED   1.00    ,  FRACTION OF STEP COMPLETED  1.000E-02
 STEP TIME COMPLETED        1.00    ,  TOTAL TIME COMPLETED         1.00    


  INCREMENT     2 STARTS. ATTEMPT NUMBER  1, TIME INCREMENT   1.00    
 
	UNSYMMETRIC NEW DIRECT SPARSE SOLVER RUNNING ON
 	1 HOST x 1 MPI RANK PER HOST x 1 THREAD PER RANK
        NUMBER OF EQUATIONS:  32
        NUMBER OF RHS:        1
        NUMBER OF FLOPS:      2.189e+04
        SOLVER ELAPSED TIME:  1ms

               CONVERGENCE CHECKS FOR EQUILIBRIUM ITERATION     1


 AVERAGE FORCE                       0.00       TIME AVG. FORCE       1.000E-02
 ALL FORCE     RESIDUALS ARE ZERO
 ALL DISP.    INCREMENTS ARE ZERO
 ALL CORRECTION TO DISP.    ARE ZERO
          THERE IS ZERO FORCE     EVERYWHERE

 AVERAGE HEAT FLUX                  1.234E-04   TIME AVG. HEAT FLUX   9.999E-03
 LARGEST RESIDUAL HEAT FLUX         2.137E-19   AT NODE          2   DOF 11
   INSTANCE: CUBE_ASSEMBLY                                                                   
 LARGEST INCREMENT OF TEMP.         0.625       AT NODE          4   DOF 11
   INSTANCE: CUBE_ASSEMBLY                                                                   
 LARGEST CORRECTION TO TEMP.        -100.       AT NODE          1   DOF 11
   INSTANCE: CUBE_ASSEMBLY                                                                   
          THE HEAT FLUX EQUILIBRIUM RESPONSE WAS LINEAR IN THIS INCREMENT

 MAXIMUM NON-PRESCRIBED INCREMENT IN TEMPERATURE IS   0.625    

 ITERATION SUMMARY FOR THE INCREMENT:   1 TOTAL ITERATIONS, OF WHICH
   0 ARE SEVERE DISCONTINUITY ITERATIONS AND  1 ARE EQUILIBRIUM ITERATIONS.

 TIME INCREMENT COMPLETED   1.00    ,  FRACTION OF STEP COMPLETED  2.000E-02
 STEP TIME COMPLETED        2.00    ,  TOTAL TIME COMPLETED         2.00    


  INCREMENT     3 STARTS. ATTEMPT NUMBER  1, TIME INCREMENT   1.00    
 
	UNSYMMETRIC NEW DIRECT SPARSE SOLVER RUNNING ON
 	1 HOST x 1 MPI RANK PER HOST x 1 THREAD PER RANK
        NUMBER OF EQUATIONS:  32
        NUMBER OF RHS:        1
        NUMBER OF FLOPS:      2.189e+04
        SOLVER ELAPSED TIME:  1ms

               CONVERGENCE CHECKS FOR EQUILIBRIUM ITERATION     1


 AVERAGE FORCE                       0.00       TIME AVG. FORCE       1.000E-02
 ALL FORCE     RESIDUALS ARE ZERO
 ALL DISP.    INCREMENTS ARE ZERO
 ALL CORRECTION TO DISP.    ARE ZERO
          THERE IS ZERO FORCE     EVERYWHERE

 AVERAGE HEAT FLUX                  1.227E-04   TIME AVG. HEAT FLUX   6.707E-03
 LARGEST RESIDUAL HEAT FLUX        -3.969E-20   AT NODE          6   DOF 11
   INSTANCE: CUBE_ASSEMBLY                                                                   
 LARGEST INCREMENT OF TEMP.         0.621       AT NODE          2   DOF 11
   INSTANCE: CUBE_ASSEMBLY                                                                   
 LARGEST CORRECTION TO TEMP.       -3.931E-03   AT NODE          4   DOF 11
   INSTANCE: CUBE_ASSEMBLY                                                                   
          THE HEAT FLUX EQUILIBRIUM RESPONSE WAS LINEAR IN THIS INCREMENT

 MAXIMUM NON-PRESCRIBED INCREMENT IN TEMPERATURE IS   0.621    

 ITERATION SUMMARY FOR THE INCREMENT:   1 TOTAL ITERATIONS, OF WHICH
   0 ARE SEVERE DISCONTINUITY ITERATIONS AND  1 ARE EQUILIBRIUM ITERATIONS.

 TIME INCREMENT COMPLETED   1.00    ,  FRACTION OF STEP COMPLETED  3.000E-02
 STEP TIME COMPLETED        3.00    ,  TOTAL TIME COMPLETED         3.00    


  INCREMENT     4 STARTS. ATTEMPT NUMBER  1, TIME INCREMENT   1.00    
 
	UNSYMMETRIC NEW DIRECT SPARSE SOLVER RUNNING ON
 	1 HOST x 1 MPI RANK PER HOST x 1 THREAD PER RANK
        NUMBER OF EQUATIONS:  32
        NUMBER OF RHS:        1
        NUMBER OF FLOPS:      2.189e+04
        SOLVER ELAPSED TIME:  1ms

               CONVERGENCE CHECKS FOR EQUILIBRIUM ITERATION     1


 AVERAGE FORCE                       0.00       TIME AVG. FORCE       1.000E-02
 ALL FORCE     RESIDUALS ARE ZERO
 ALL DISP.    INCREMENTS ARE ZERO
 ALL CORRECTION TO DISP.    ARE ZERO
          THERE IS ZERO FORCE     EVERYWHERE

 AVERAGE HEAT FLUX                  1.219E-04   TIME AVG. HEAT FLUX   5.061E-03
 LARGEST RESIDUAL HEAT FLUX        -4.515E-20   AT NODE          4   DOF 11
   INSTANCE: CUBE_ASSEMBLY                                                                   
 LARGEST INCREMENT OF TEMP.         0.617       AT NODE          2   DOF 11
   INSTANCE: CUBE_ASSEMBLY                                                                   
 LARGEST CORRECTION TO TEMP.       -3.906E-03   AT NODE          8   DOF 11
   INSTANCE: CUBE_ASSEMBLY                                                                   
          THE HEAT FLUX EQUILIBRIUM RESPONSE WAS LINEAR IN THIS INCREMENT

 MAXIMUM NON-PRESCRIBED INCREMENT IN TEMPERATURE IS   0.617    

 ITERATION SUMMARY FOR THE INCREMENT:   1 TOTAL ITERATIONS, OF WHICH
   0 ARE SEVERE DISCONTINUITY ITERATIONS AND  1 ARE EQUILIBRIUM ITERATIONS.

 TIME INCREMENT COMPLETED   1.00    ,  FRACTION OF STEP COMPLETED  4.000E-02
 STEP TIME COMPLETED        4.00    ,  TOTAL TIME COMPLETED         4.00    


  INCREMENT     5 STARTS. ATTEMPT NUMBER  1, TIME INCREMENT   1.00    
 
	UNSYMMETRIC NEW DIRECT SPARSE SOLVER RUNNING ON
 	1 HOST x 1 MPI RANK PER HOST x 1 THREAD PER RANK
        NUMBER OF EQUATIONS:  32
        NUMBER OF RHS:        1
        NUMBER OF FLOPS:      2.189e+04
        SOLVER ELAPSED TIME:  1ms

               CONVERGENCE CHECKS FOR EQUILIBRIUM ITERATION     1


 AVERAGE FORCE                       0.00       TIME AVG. FORCE       1.000E-02
 ALL FORCE     RESIDUALS ARE ZERO
 ALL DISP.    INCREMENTS ARE ZERO
 ALL CORRECTION TO DISP.    ARE ZERO
          THERE IS ZERO FORCE     EVERYWHERE

 AVERAGE HEAT FLUX                  1.211E-04   TIME AVG. HEAT FLUX   4.073E-03
 LARGEST RESIDUAL HEAT FLUX        -8.229E-20   AT NODE          8   DOF 11
   INSTANCE: CUBE_ASSEMBLY                                                                   
 LARGEST INCREMENT OF TEMP.         0.613       AT NODE          2   DOF 11
   INSTANCE: CUBE_ASSEMBLY                                                                   
 LARGEST CORRECTION TO TEMP.       -3.881E-03   AT NODE          4   DOF 11
   INSTANCE: CUBE_ASSEMBLY                                                                   
          THE HEAT FLUX EQUILIBRIUM RESPONSE WAS LINEAR IN THIS INCREMENT

 MAXIMUM NON-PRESCRIBED INCREMENT IN TEMPERATURE IS   0.613    

 ITERATION SUMMARY FOR THE INCREMENT:   1 TOTAL ITERATIONS, OF WHICH
   0 ARE SEVERE DISCONTINUITY ITERATIONS AND  1 ARE EQUILIBRIUM ITERATIONS.

 TIME INCREMENT COMPLETED   1.00    ,  FRACTION OF STEP COMPLETED  5.000E-02
 STEP TIME COMPLETED        5.00    ,  TOTAL TIME COMPLETED         5.00    


  INCREMENT     6 STARTS. ATTEMPT NUMBER  1, TIME INCREMENT   1.00    
 
	UNSYMMETRIC NEW DIRECT SPARSE SOLVER RUNNING ON
 	1 HOST x 1 MPI RANK PER HOST x 1 THREAD PER RANK
        NUMBER OF EQUATIONS:  32
        NUMBER OF RHS:        1
        NUMBER OF FLOPS:      2.189e+04
        SOLVER ELAPSED TIME:  0ms

               CONVERGENCE CHECKS FOR EQUILIBRIUM ITERATION     1


 AVERAGE FORCE                       0.00       TIME AVG. FORCE       1.000E-02
 ALL FORCE     RESIDUALS ARE ZERO
 ALL DISP.    INCREMENTS ARE ZERO
 ALL CORRECTION TO DISP.    ARE ZERO
          THERE IS ZERO FORCE     EVERYWHERE

 AVERAGE HEAT FLUX                  1.204E-04   TIME AVG. HEAT FLUX   3.414E-03
 LARGEST RESIDUAL HEAT FLUX        -5.518E-20   AT NODE          8   DOF 11
   INSTANCE: CUBE_ASSEMBLY                                                                   
 LARGEST INCREMENT OF TEMP.         0.609       AT NODE          2   DOF 11
   INSTANCE: CUBE_ASSEMBLY                                                                   
 LARGEST CORRECTION TO TEMP.       -3.857E-03   AT NODE          2   DOF 11
   INSTANCE: CUBE_ASSEMBLY                                                                   
          THE HEAT FLUX EQUILIBRIUM RESPONSE WAS LINEAR IN THIS INCREMENT

 MAXIMUM NON-PRESCRIBED INCREMENT IN TEMPERATURE IS   0.609    

 ITERATION SUMMARY FOR THE INCREMENT:   1 TOTAL ITERATIONS, OF WHICH
   0 ARE SEVERE DISCONTINUITY ITERATIONS AND  1 ARE EQUILIBRIUM ITERATIONS.

 TIME INCREMENT COMPLETED   1.00    ,  FRACTION OF STEP COMPLETED  6.000E-02
 STEP TIME COMPLETED        6.00    ,  TOTAL TIME COMPLETED         6.00    


  INCREMENT     7 STARTS. ATTEMPT NUMBER  1, TIME INCREMENT   1.00    
 
	UNSYMMETRIC NEW DIRECT SPARSE SOLVER RUNNING ON
 	1 HOST x 1 MPI RANK PER HOST x 1 THREAD PER RANK
        NUMBER OF EQUATIONS:  32
        NUMBER OF RHS:        1
        NUMBER OF FLOPS:      2.189e+04
        SOLVER ELAPSED TIME:  1ms

               CONVERGENCE CHECKS FOR EQUILIBRIUM ITERATION     1


 AVERAGE FORCE                       0.00       TIME AVG. FORCE       1.000E-02
 ALL FORCE     RESIDUALS ARE ZERO
 ALL DISP.    INCREMENTS ARE ZERO
 ALL CORRECTION TO DISP.    ARE ZERO
          THERE IS ZERO FORCE     EVERYWHERE

 AVERAGE HEAT FLUX                  1.196E-04   TIME AVG. HEAT FLUX   2.943E-03
 LARGEST RESIDUAL HEAT FLUX         1.452E-20   AT NODE          6   DOF 11
   INSTANCE: CUBE_ASSEMBLY                                                                   
 LARGEST INCREMENT OF TEMP.         0.606       AT NODE          2   DOF 11
   INSTANCE: CUBE_ASSEMBLY                                                                   
 LARGEST CORRECTION TO TEMP.       -3.833E-03   AT NODE          2   DOF 11
   INSTANCE: CUBE_ASSEMBLY                                                                   
          THE HEAT FLUX EQUILIBRIUM RESPONSE WAS LINEAR IN THIS INCREMENT

 MAXIMUM NON-PRESCRIBED INCREMENT IN TEMPERATURE IS   0.606    

 ITERATION SUMMARY FOR THE INCREMENT:   1 TOTAL ITERATIONS, OF WHICH
   0 ARE SEVERE DISCONTINUITY ITERATIONS AND  1 ARE EQUILIBRIUM ITERATIONS.

 TIME INCREMENT COMPLETED   1.00    ,  FRACTION OF STEP COMPLETED  7.000E-02
 STEP TIME COMPLETED        7.00    ,  TOTAL TIME COMPLETED         7.00    


  INCREMENT     8 STARTS. ATTEMPT NUMBER  1, TIME INCREMENT   1.00    
 
	UNSYMMETRIC NEW DIRECT SPARSE SOLVER RUNNING ON
 	1 HOST x 1 MPI RANK PER HOST x 1 THREAD PER RANK
        NUMBER OF EQUATIONS:  32
        NUMBER OF RHS:        1
        NUMBER OF FLOPS:      2.189e+04
        SOLVER ELAPSED TIME:  0ms

               CONVERGENCE CHECKS FOR EQUILIBRIUM ITERATION     1


 AVERAGE FORCE                       0.00       TIME AVG. FORCE       1.000E-02
 ALL FORCE     RESIDUALS ARE ZERO
 ALL DISP.    INCREMENTS ARE ZERO
 ALL CORRECTION TO DISP.    ARE ZERO
          THERE IS ZERO FORCE     EVERYWHERE

 AVERAGE HEAT FLUX                  1.188E-04   TIME AVG. HEAT FLUX   2.590E-03
 LARGEST RESIDUAL HEAT FLUX        -7.311E-20   AT NODE          4   DOF 11
   INSTANCE: CUBE_ASSEMBLY                                                                   
 LARGEST INCREMENT OF TEMP.         0.602       AT NODE          6   DOF 11
   INSTANCE: CUBE_ASSEMBLY                                                                   
 LARGEST CORRECTION TO TEMP.       -3.809E-03   AT NODE          4   DOF 11
   INSTANCE: CUBE_ASSEMBLY                                                                   
          THE HEAT FLUX EQUILIBRIUM RESPONSE WAS LINEAR IN THIS INCREMENT

 MAXIMUM NON-PRESCRIBED INCREMENT IN TEMPERATURE IS   0.602    

 ITERATION SUMMARY FOR THE INCREMENT:   1 TOTAL ITERATIONS, OF WHICH
   0 ARE SEVERE DISCONTINUITY ITERATIONS AND  1 ARE EQUILIBRIUM ITERATIONS.

 TIME INCREMENT COMPLETED   1.00    ,  FRACTION OF STEP COMPLETED  8.000E-02
 STEP TIME COMPLETED        8.00    ,  TOTAL TIME COMPLETED         8.00    


  INCREMENT     9 STARTS. ATTEMPT NUMBER  1, TIME INCREMENT   1.00    
 
	UNSYMMETRIC NEW DIRECT SPARSE SOLVER RUNNING ON
 	1 HOST x 1 MPI RANK PER HOST x 1 THREAD PER RANK
        NUMBER OF EQUATIONS:  32
        NUMBER OF RHS:        1
        NUMBER OF FLOPS:      2.189e+04
        SOLVER ELAPSED TIME:  1ms

               CONVERGENCE CHECKS FOR EQUILIBRIUM ITERATION     1


 AVERAGE FORCE                       0.00       TIME AVG. FORCE       1.000E-02
 ALL FORCE     RESIDUALS ARE ZERO
 ALL DISP.    INCREMENTS ARE ZERO
 ALL CORRECTION TO DISP.    ARE ZERO
          THERE IS ZERO FORCE     EVERYWHERE

 AVERAGE HEAT FLUX                  1.181E-04   TIME AVG. HEAT FLUX   2.316E-03
 LARGEST RESIDUAL HEAT FLUX        -6.679E-20   AT NODE          6   DOF 11
   INSTANCE: CUBE_ASSEMBLY                                                                   
 LARGEST INCREMENT OF TEMP.         0.598       AT NODE          6   DOF 11
   INSTANCE: CUBE_ASSEMBLY                                                                   
 LARGEST CORRECTION TO TEMP.       -3.785E-03   AT NODE          4   DOF 11
   INSTANCE: CUBE_ASSEMBLY                                                                   
          THE HEAT FLUX EQUILIBRIUM RESPONSE WAS LINEAR IN THIS INCREMENT

 MAXIMUM NON-PRESCRIBED INCREMENT IN TEMPERATURE IS   0.598    

 ITERATION SUMMARY FOR THE INCREMENT:   1 TOTAL ITERATIONS, OF WHICH
   0 ARE SEVERE DISCONTINUITY ITERATIONS AND  1 ARE EQUILIBRIUM ITERATIONS.

 TIME INCREMENT COMPLETED   1.00    ,  FRACTION OF STEP COMPLETED  9.000E-02
 STEP TIME COMPLETED        9.00    ,  TOTAL TIME COMPLETED         9.00    


  INCREMENT    10 STARTS. ATTEMPT NUMBER  1, TIME INCREMENT   1.00    
 
	UNSYMMETRIC NEW DIRECT SPARSE SOLVER RUNNING ON
 	1 HOST x 1 MPI RANK PER HOST x 1 THREAD PER RANK
        NUMBER OF EQUATIONS:  32
        NUMBER OF RHS:        1
        NUMBER OF FLOPS:      2.189e+04
        SOLVER ELAPSED TIME:  1ms

               CONVERGENCE CHECKS FOR EQUILIBRIUM ITERATION     1


 AVERAGE FORCE                       0.00       TIME AVG. FORCE       1.000E-02
 ALL FORCE     RESIDUALS ARE ZERO
 ALL DISP.    INCREMENTS ARE ZERO
 ALL CORRECTION TO DISP.    ARE ZERO
          THERE IS ZERO FORCE     EVERYWHERE

 AVERAGE HEAT FLUX                  1.174E-04   TIME AVG. HEAT FLUX   2.096E-03
 LARGEST RESIDUAL HEAT FLUX         7.357E-20   AT NODE          8   DOF 11
   INSTANCE: CUBE_ASSEMBLY                                                                   
 LARGEST INCREMENT OF TEMP.         0.594       AT NODE          2   DOF 11
   INSTANCE: CUBE_ASSEMBLY                                                                   
 LARGEST CORRECTION TO TEMP.       -3.761E-03   AT NODE          6   DOF 11
   INSTANCE: CUBE_ASSEMBLY                                                                   
          THE HEAT FLUX EQUILIBRIUM RESPONSE WAS LINEAR IN THIS INCREMENT

 MAXIMUM NON-PRESCRIBED INCREMENT IN TEMPERATURE IS   0.594    

 ITERATION SUMMARY FOR THE INCREMENT:   1 TOTAL ITERATIONS, OF WHICH
   0 ARE SEVERE DISCONTINUITY ITERATIONS AND  1 ARE EQUILIBRIUM ITERATIONS.

 TIME INCREMENT COMPLETED   1.00    ,  FRACTION OF STEP COMPLETED  0.100    
 STEP TIME COMPLETED        10.0    ,  TOTAL TIME COMPLETED         10.0    


  INCREMENT    11 STARTS. ATTEMPT NUMBER  1, TIME INCREMENT   1.00    
 
	UNSYMMETRIC NEW DIRECT SPARSE SOLVER RUNNING ON
 	1 HOST x 1 MPI RANK PER HOST x 1 THREAD PER RANK
        NUMBER OF EQUATIONS:  32
        NUMBER OF RHS:        1
        NUMBER OF FLOPS:      2.189e+04
        SOLVER ELAPSED TIME:  1ms

               CONVERGENCE CHECKS FOR EQUILIBRIUM ITERATION     1


 AVERAGE FORCE                       0.00       TIME AVG. FORCE       1.000E-02
 ALL FORCE     RESIDUALS ARE ZERO
 ALL DISP.    INCREMENTS ARE ZERO
 ALL CORRECTION TO DISP.    ARE ZERO
          THERE IS ZERO FORCE     EVERYWHERE

 AVERAGE HEAT FLUX                  1.166E-04   TIME AVG. HEAT FLUX   1.916E-03
 LARGEST RESIDUAL HEAT FLUX         3.447E-20   AT NODE          4   DOF 11
   INSTANCE: CUBE_ASSEMBLY                                                                   
 LARGEST INCREMENT OF TEMP.         0.590       AT NODE          2   DOF 11
   INSTANCE: CUBE_ASSEMBLY                                                                   
 LARGEST CORRECTION TO TEMP.       -3.737E-03   AT NODE          4   DOF 11
   INSTANCE: CUBE_ASSEMBLY                                                                   
          THE HEAT FLUX EQUILIBRIUM RESPONSE WAS LINEAR IN THIS INCREMENT

 MAXIMUM NON-PRESCRIBED INCREMENT IN TEMPERATURE IS   0.590    

 ITERATION SUMMARY FOR THE INCREMENT:   1 TOTAL ITERATIONS, OF WHICH
   0 ARE SEVERE DISCONTINUITY ITERATIONS AND  1 ARE EQUILIBRIUM ITERATIONS.

 TIME INCREMENT COMPLETED   1.00    ,  FRACTION OF STEP COMPLETED  0.110    
 STEP TIME COMPLETED        11.0    ,  TOTAL TIME COMPLETED         11.0    


  INCREMENT    12 STARTS. ATTEMPT NUMBER  1, TIME INCREMENT   1.00    
 
	UNSYMMETRIC NEW DIRECT SPARSE SOLVER RUNNING ON
 	1 HOST x 1 MPI RANK PER HOST x 1 THREAD PER RANK
        NUMBER OF EQUATIONS:  32
        NUMBER OF RHS:        1
        NUMBER OF FLOPS:      2.189e+04
        SOLVER ELAPSED TIME:  1ms

               CONVERGENCE CHECKS FOR EQUILIBRIUM ITERATION     1


 AVERAGE FORCE                       0.00       TIME AVG. FORCE       1.000E-02
 ALL FORCE     RESIDUALS ARE ZERO
 ALL DISP.    INCREMENTS ARE ZERO
 ALL CORRECTION TO DISP.    ARE ZERO
          THERE IS ZERO FORCE     EVERYWHERE

 AVERAGE HEAT FLUX                  1.159E-04   TIME AVG. HEAT FLUX   1.766E-03
 LARGEST RESIDUAL HEAT FLUX         5.226E-20   AT NODE          4   DOF 11
   INSTANCE: CUBE_ASSEMBLY                                                                   
 LARGEST INCREMENT OF TEMP.         0.587       AT NODE          8   DOF 11
   INSTANCE: CUBE_ASSEMBLY                                                                   
 LARGEST CORRECTION TO TEMP.       -3.714E-03   AT NODE          2   DOF 11
   INSTANCE: CUBE_ASSEMBLY                                                                   
          THE HEAT FLUX EQUILIBRIUM RESPONSE WAS LINEAR IN THIS INCREMENT

 MAXIMUM NON-PRESCRIBED INCREMENT IN TEMPERATURE IS   0.587    

 ITERATION SUMMARY FOR THE INCREMENT:   1 TOTAL ITERATIONS, OF WHICH
   0 ARE SEVERE DISCONTINUITY ITERATIONS AND  1 ARE EQUILIBRIUM ITERATIONS.

 TIME INCREMENT COMPLETED   1.00    ,  FRACTION OF STEP COMPLETED  0.120    
 STEP TIME COMPLETED        12.0    ,  TOTAL TIME COMPLETED         12.0    


  INCREMENT    13 STARTS. ATTEMPT NUMBER  1, TIME INCREMENT   1.00    
 
	UNSYMMETRIC NEW DIRECT SPARSE SOLVER RUNNING ON
 	1 HOST x 1 MPI RANK PER HOST x 1 THREAD PER RANK
        NUMBER OF EQUATIONS:  32
        NUMBER OF RHS:        1
        NUMBER OF FLOPS:      2.189e+04
        SOLVER ELAPSED TIME:  0ms

               CONVERGENCE CHECKS FOR EQUILIBRIUM ITERATION     1


 AVERAGE FORCE                       0.00       TIME AVG. FORCE       1.000E-02
 ALL FORCE     RESIDUALS ARE ZERO
 ALL DISP.    INCREMENTS ARE ZERO
 ALL CORRECTION TO DISP.    ARE ZERO
          THERE IS ZERO FORCE     EVERYWHERE

 AVERAGE HEAT FLUX                  1.152E-04   TIME AVG. HEAT FLUX   1.639E-03
 LARGEST RESIDUAL HEAT FLUX        -4.685E-20   AT NODE          4   DOF 11
   INSTANCE: CUBE_ASSEMBLY                                                                   
 LARGEST INCREMENT OF TEMP.         0.583       AT NODE          6   DOF 11
   INSTANCE: CUBE_ASSEMBLY                                                                   
 LARGEST CORRECTION TO TEMP.       -3.690E-03   AT NODE          8   DOF 11
   INSTANCE: CUBE_ASSEMBLY                                                                   
          THE HEAT FLUX EQUILIBRIUM RESPONSE WAS LINEAR IN THIS INCREMENT

 MAXIMUM NON-PRESCRIBED INCREMENT IN TEMPERATURE IS   0.583    

 ITERATION SUMMARY FOR THE INCREMENT:   1 TOTAL ITERATIONS, OF WHICH
   0 ARE SEVERE DISCONTINUITY ITERATIONS AND  1 ARE EQUILIBRIUM ITERATIONS.

 TIME INCREMENT COMPLETED   1.00    ,  FRACTION OF STEP COMPLETED  0.130    
 STEP TIME COMPLETED        13.0    ,  TOTAL TIME COMPLETED         13.0    


  INCREMENT    14 STARTS. ATTEMPT NUMBER  1, TIME INCREMENT   1.00    
 
	UNSYMMETRIC NEW DIRECT SPARSE SOLVER RUNNING ON
 	1 HOST x 1 MPI RANK PER HOST x 1 THREAD PER RANK
        NUMBER OF EQUATIONS:  32
        NUMBER OF RHS:        1
        NUMBER OF FLOPS:      2.189e+04
        SOLVER ELAPSED TIME:  1ms

               CONVERGENCE CHECKS FOR EQUILIBRIUM ITERATION     1


 AVERAGE FORCE                       0.00       TIME AVG. FORCE       1.000E-02
 ALL FORCE     RESIDUALS ARE ZERO
 ALL DISP.    INCREMENTS ARE ZERO
 ALL CORRECTION TO DISP.    ARE ZERO
          THERE IS ZERO FORCE     EVERYWHERE

 AVERAGE HEAT FLUX                  1.144E-04   TIME AVG. HEAT FLUX   1.530E-03
 LARGEST RESIDUAL HEAT FLUX         9.207E-20   AT NODE          4   DOF 11
   INSTANCE: CUBE_ASSEMBLY                                                                   
 LARGEST INCREMENT OF TEMP.         0.579       AT NODE          6   DOF 11
   INSTANCE: CUBE_ASSEMBLY                                                                   
 LARGEST CORRECTION TO TEMP.       -3.667E-03   AT NODE          4   DOF 11
   INSTANCE: CUBE_ASSEMBLY                                                                   
          THE HEAT FLUX EQUILIBRIUM RESPONSE WAS LINEAR IN THIS INCREMENT

 MAXIMUM NON-PRESCRIBED INCREMENT IN TEMPERATURE IS   0.579    

 ITERATION SUMMARY FOR THE INCREMENT:   1 TOTAL ITERATIONS, OF WHICH
   0 ARE SEVERE DISCONTINUITY ITERATIONS AND  1 ARE EQUILIBRIUM ITERATIONS.

 TIME INCREMENT COMPLETED   1.00    ,  FRACTION OF STEP COMPLETED  0.140    
 STEP TIME COMPLETED        14.0    ,  TOTAL TIME COMPLETED         14.0    


  INCREMENT    15 STARTS. ATTEMPT NUMBER  1, TIME INCREMENT   1.00    
 
	UNSYMMETRIC NEW DIRECT SPARSE SOLVER RUNNING ON
 	1 HOST x 1 MPI RANK PER HOST x 1 THREAD PER RANK
        NUMBER OF EQUATIONS:  32
        NUMBER OF RHS:        1
        NUMBER OF FLOPS:      2.189e+04
        SOLVER ELAPSED TIME:  1ms

               CONVERGENCE CHECKS FOR EQUILIBRIUM ITERATION     1


 AVERAGE FORCE                       0.00       TIME AVG. FORCE       1.000E-02
 ALL FORCE     RESIDUALS ARE ZERO
 ALL DISP.    INCREMENTS ARE ZERO
 ALL CORRECTION TO DISP.    ARE ZERO
          THERE IS ZERO FORCE     EVERYWHERE

 AVERAGE HEAT FLUX                  1.137E-04   TIME AVG. HEAT FLUX   1.436E-03
 LARGEST RESIDUAL HEAT FLUX         9.584E-20   AT NODE          6   DOF 11
   INSTANCE: CUBE_ASSEMBLY                                                                   
 LARGEST INCREMENT OF TEMP.         0.576       AT NODE          2   DOF 11
   INSTANCE: CUBE_ASSEMBLY                                                                   
 LARGEST CORRECTION TO TEMP.       -3.644E-03   AT NODE          6   DOF 11
   INSTANCE: CUBE_ASSEMBLY                                                                   
          THE HEAT FLUX EQUILIBRIUM RESPONSE WAS LINEAR IN THIS INCREMENT

 MAXIMUM NON-PRESCRIBED INCREMENT IN TEMPERATURE IS   0.576    

 ITERATION SUMMARY FOR THE INCREMENT:   1 TOTAL ITERATIONS, OF WHICH
   0 ARE SEVERE DISCONTINUITY ITERATIONS AND  1 ARE EQUILIBRIUM ITERATIONS.

 TIME INCREMENT COMPLETED   1.00    ,  FRACTION OF STEP COMPLETED  0.150    
 STEP TIME COMPLETED        15.0    ,  TOTAL TIME COMPLETED         15.0    


  INCREMENT    16 STARTS. ATTEMPT NUMBER  1, TIME INCREMENT   1.00    
 
	UNSYMMETRIC NEW DIRECT SPARSE SOLVER RUNNING ON
 	1 HOST x 1 MPI RANK PER HOST x 1 THREAD PER RANK
        NUMBER OF EQUATIONS:  32
        NUMBER OF RHS:        1
        NUMBER OF FLOPS:      2.189e+04
        SOLVER ELAPSED TIME:  0ms

               CONVERGENCE CHECKS FOR EQUILIBRIUM ITERATION     1


 AVERAGE FORCE                       0.00       TIME AVG. FORCE       1.000E-02
 ALL FORCE     RESIDUALS ARE ZERO
 ALL DISP.    INCREMENTS ARE ZERO
 ALL CORRECTION TO DISP.    ARE ZERO
          THERE IS ZERO FORCE     EVERYWHERE

 AVERAGE HEAT FLUX                  1.130E-04   TIME AVG. HEAT FLUX   1.353E-03
 LARGEST RESIDUAL HEAT FLUX         4.463E-20   AT NODE          4   DOF 11
   INSTANCE: CUBE_ASSEMBLY                                                                   
 LARGEST INCREMENT OF TEMP.         0.572       AT NODE          2   DOF 11
   INSTANCE: CUBE_ASSEMBLY                                                                   
 LARGEST CORRECTION TO TEMP.       -3.621E-03   AT NODE          4   DOF 11
   INSTANCE: CUBE_ASSEMBLY                                                                   
          THE HEAT FLUX EQUILIBRIUM RESPONSE WAS LINEAR IN THIS INCREMENT

 MAXIMUM NON-PRESCRIBED INCREMENT IN TEMPERATURE IS   0.572    

 ITERATION SUMMARY FOR THE INCREMENT:   1 TOTAL ITERATIONS, OF WHICH
   0 ARE SEVERE DISCONTINUITY ITERATIONS AND  1 ARE EQUILIBRIUM ITERATIONS.

 TIME INCREMENT COMPLETED   1.00    ,  FRACTION OF STEP COMPLETED  0.160    
 STEP TIME COMPLETED        16.0    ,  TOTAL TIME COMPLETED         16.0    


  INCREMENT    17 STARTS. ATTEMPT NUMBER  1, TIME INCREMENT   1.00    
 
	UNSYMMETRIC NEW DIRECT SPARSE SOLVER RUNNING ON
 	1 HOST x 1 MPI RANK PER HOST x 1 THREAD PER RANK
        NUMBER OF EQUATIONS:  32
        NUMBER OF RHS:        1
        NUMBER OF FLOPS:      2.189e+04
        SOLVER ELAPSED TIME:  1ms

               CONVERGENCE CHECKS FOR EQUILIBRIUM ITERATION     1


 AVERAGE FORCE                       0.00       TIME AVG. FORCE       1.000E-02
 ALL FORCE     RESIDUALS ARE ZERO
 ALL DISP.    INCREMENTS ARE ZERO
 ALL CORRECTION TO DISP.    ARE ZERO
          THERE IS ZERO FORCE     EVERYWHERE

 AVERAGE HEAT FLUX                  1.123E-04   TIME AVG. HEAT FLUX   1.280E-03
 LARGEST RESIDUAL HEAT FLUX         6.873E-20   AT NODE          6   DOF 11
   INSTANCE: CUBE_ASSEMBLY                                                                   
 LARGEST INCREMENT OF TEMP.         0.569       AT NODE          2   DOF 11
   INSTANCE: CUBE_ASSEMBLY                                                                   
 LARGEST CORRECTION TO TEMP.       -3.598E-03   AT NODE          8   DOF 11
   INSTANCE: CUBE_ASSEMBLY                                                                   
          THE HEAT FLUX EQUILIBRIUM RESPONSE WAS LINEAR IN THIS INCREMENT

 MAXIMUM NON-PRESCRIBED INCREMENT IN TEMPERATURE IS   0.569    

 ITERATION SUMMARY FOR THE INCREMENT:   1 TOTAL ITERATIONS, OF WHICH
   0 ARE SEVERE DISCONTINUITY ITERATIONS AND  1 ARE EQUILIBRIUM ITERATIONS.

 TIME INCREMENT COMPLETED   1.00    ,  FRACTION OF STEP COMPLETED  0.170    
 STEP TIME COMPLETED        17.0    ,  TOTAL TIME COMPLETED         17.0    


  INCREMENT    18 STARTS. ATTEMPT NUMBER  1, TIME INCREMENT   1.00    
 
	UNSYMMETRIC NEW DIRECT SPARSE SOLVER RUNNING ON
 	1 HOST x 1 MPI RANK PER HOST x 1 THREAD PER RANK
        NUMBER OF EQUATIONS:  32
        NUMBER OF RHS:        1
        NUMBER OF FLOPS:      2.189e+04
        SOLVER ELAPSED TIME:  0ms

               CONVERGENCE CHECKS FOR EQUILIBRIUM ITERATION     1


 AVERAGE FORCE                       0.00       TIME AVG. FORCE       1.000E-02
 ALL FORCE     RESIDUALS ARE ZERO
 ALL DISP.    INCREMENTS ARE ZERO
 ALL CORRECTION TO DISP.    ARE ZERO
          THERE IS ZERO FORCE     EVERYWHERE

 AVERAGE HEAT FLUX                  1.116E-04   TIME AVG. HEAT FLUX   1.215E-03
 LARGEST RESIDUAL HEAT FLUX        -8.105E-20   AT NODE          2   DOF 11
   INSTANCE: CUBE_ASSEMBLY                                                                   
 LARGEST INCREMENT OF TEMP.         0.565       AT NODE          2   DOF 11
   INSTANCE: CUBE_ASSEMBLY                                                                   
 LARGEST CORRECTION TO TEMP.       -3.576E-03   AT NODE          8   DOF 11
   INSTANCE: CUBE_ASSEMBLY                                                                   
          THE HEAT FLUX EQUILIBRIUM RESPONSE WAS LINEAR IN THIS INCREMENT

 MAXIMUM NON-PRESCRIBED INCREMENT IN TEMPERATURE IS   0.565    

 ITERATION SUMMARY FOR THE INCREMENT:   1 TOTAL ITERATIONS, OF WHICH
   0 ARE SEVERE DISCONTINUITY ITERATIONS AND  1 ARE EQUILIBRIUM ITERATIONS.

 TIME INCREMENT COMPLETED   1.00    ,  FRACTION OF STEP COMPLETED  0.180    
 STEP TIME COMPLETED        18.0    ,  TOTAL TIME COMPLETED         18.0    


  INCREMENT    19 STARTS. ATTEMPT NUMBER  1, TIME INCREMENT   1.00    
 
	UNSYMMETRIC NEW DIRECT SPARSE SOLVER RUNNING ON
 	1 HOST x 1 MPI RANK PER HOST x 1 THREAD PER RANK
        NUMBER OF EQUATIONS:  32
        NUMBER OF RHS:        1
        NUMBER OF FLOPS:      2.189e+04
        SOLVER ELAPSED TIME:  1ms

               CONVERGENCE CHECKS FOR EQUILIBRIUM ITERATION     1


 AVERAGE FORCE                       0.00       TIME AVG. FORCE       1.000E-02
 ALL FORCE     RESIDUALS ARE ZERO
 ALL DISP.    INCREMENTS ARE ZERO
 ALL CORRECTION TO DISP.    ARE ZERO
          THERE IS ZERO FORCE     EVERYWHERE

 AVERAGE HEAT FLUX                  1.109E-04   TIME AVG. HEAT FLUX   1.157E-03
 LARGEST RESIDUAL HEAT FLUX         4.887E-20   AT NODE          4   DOF 11
   INSTANCE: CUBE_ASSEMBLY                                                                   
 LARGEST INCREMENT OF TEMP.         0.561       AT NODE          6   DOF 11
   INSTANCE: CUBE_ASSEMBLY                                                                   
 LARGEST CORRECTION TO TEMP.       -3.553E-03   AT NODE          2   DOF 11
   INSTANCE: CUBE_ASSEMBLY                                                                   
          THE HEAT FLUX EQUILIBRIUM RESPONSE WAS LINEAR IN THIS INCREMENT

 MAXIMUM NON-PRESCRIBED INCREMENT IN TEMPERATURE IS   0.561    

 ITERATION SUMMARY FOR THE INCREMENT:   1 TOTAL ITERATIONS, OF WHICH
   0 ARE SEVERE DISCONTINUITY ITERATIONS AND  1 ARE EQUILIBRIUM ITERATIONS.

 TIME INCREMENT COMPLETED   1.00    ,  FRACTION OF STEP COMPLETED  0.190    
 STEP TIME COMPLETED        19.0    ,  TOTAL TIME COMPLETED         19.0    


  INCREMENT    20 STARTS. ATTEMPT NUMBER  1, TIME INCREMENT   1.00    
 
	UNSYMMETRIC NEW DIRECT SPARSE SOLVER RUNNING ON
 	1 HOST x 1 MPI RANK PER HOST x 1 THREAD PER RANK
        NUMBER OF EQUATIONS:  32
        NUMBER OF RHS:        1
        NUMBER OF FLOPS:      2.189e+04
        SOLVER ELAPSED TIME:  1ms

               CONVERGENCE CHECKS FOR EQUILIBRIUM ITERATION     1


 AVERAGE FORCE                       0.00       TIME AVG. FORCE       1.000E-02
 ALL FORCE     RESIDUALS ARE ZERO
 ALL DISP.    INCREMENTS ARE ZERO
 ALL CORRECTION TO DISP.    ARE ZERO
          THERE IS ZERO FORCE     EVERYWHERE

 AVERAGE HEAT FLUX                  1.102E-04   TIME AVG. HEAT FLUX   1.105E-03
 LARGEST RESIDUAL HEAT FLUX         8.034E-20   AT NODE          8   DOF 11
   INSTANCE: CUBE_ASSEMBLY                                                                   
 LARGEST INCREMENT OF TEMP.         0.558       AT NODE          6   DOF 11
   INSTANCE: CUBE_ASSEMBLY                                                                   
 LARGEST CORRECTION TO TEMP.       -3.531E-03   AT NODE          6   DOF 11
   INSTANCE: CUBE_ASSEMBLY                                                                   
          THE HEAT FLUX EQUILIBRIUM RESPONSE WAS LINEAR IN THIS INCREMENT

 MAXIMUM NON-PRESCRIBED INCREMENT IN TEMPERATURE IS   0.558    

 ITERATION SUMMARY FOR THE INCREMENT:   1 TOTAL ITERATIONS, OF WHICH
   0 ARE SEVERE DISCONTINUITY ITERATIONS AND  1 ARE EQUILIBRIUM ITERATIONS.

 TIME INCREMENT COMPLETED   1.00    ,  FRACTION OF STEP COMPLETED  0.200    
 STEP TIME COMPLETED        20.0    ,  TOTAL TIME COMPLETED         20.0    


  INCREMENT    21 STARTS. ATTEMPT NUMBER  1, TIME INCREMENT   1.00    
 
	UNSYMMETRIC NEW DIRECT SPARSE SOLVER RUNNING ON
 	1 HOST x 1 MPI RANK PER HOST x 1 THREAD PER RANK
        NUMBER OF EQUATIONS:  32
        NUMBER OF RHS:        1
        NUMBER OF FLOPS:      2.189e+04
        SOLVER ELAPSED TIME:  1ms

               CONVERGENCE CHECKS FOR EQUILIBRIUM ITERATION     1


 AVERAGE FORCE                       0.00       TIME AVG. FORCE       1.000E-02
 ALL FORCE     RESIDUALS ARE ZERO
 ALL DISP.    INCREMENTS ARE ZERO
 ALL CORRECTION TO DISP.    ARE ZERO
          THERE IS ZERO FORCE     EVERYWHERE

 AVERAGE HEAT FLUX                  1.095E-04   TIME AVG. HEAT FLUX   1.057E-03
 LARGEST RESIDUAL HEAT FLUX        -1.668E-20   AT NODE          2   DOF 11
   INSTANCE: CUBE_ASSEMBLY                                                                   
 LARGEST INCREMENT OF TEMP.         0.554       AT NODE          2   DOF 11
   INSTANCE: CUBE_ASSEMBLY                                                                   
 LARGEST CORRECTION TO TEMP.       -3.509E-03   AT NODE          4   DOF 11
   INSTANCE: CUBE_ASSEMBLY                                                                   
          THE HEAT FLUX EQUILIBRIUM RESPONSE WAS LINEAR IN THIS INCREMENT

 MAXIMUM NON-PRESCRIBED INCREMENT IN TEMPERATURE IS   0.554    

 ITERATION SUMMARY FOR THE INCREMENT:   1 TOTAL ITERATIONS, OF WHICH
   0 ARE SEVERE DISCONTINUITY ITERATIONS AND  1 ARE EQUILIBRIUM ITERATIONS.

 TIME INCREMENT COMPLETED   1.00    ,  FRACTION OF STEP COMPLETED  0.210    
 STEP TIME COMPLETED        21.0    ,  TOTAL TIME COMPLETED         21.0    


  INCREMENT    22 STARTS. ATTEMPT NUMBER  1, TIME INCREMENT   1.00    
 
	UNSYMMETRIC NEW DIRECT SPARSE SOLVER RUNNING ON
 	1 HOST x 1 MPI RANK PER HOST x 1 THREAD PER RANK
        NUMBER OF EQUATIONS:  32
        NUMBER OF RHS:        1
        NUMBER OF FLOPS:      2.189e+04
        SOLVER ELAPSED TIME:  0ms

               CONVERGENCE CHECKS FOR EQUILIBRIUM ITERATION     1


 AVERAGE FORCE                       0.00       TIME AVG. FORCE       1.000E-02
 ALL FORCE     RESIDUALS ARE ZERO
 ALL DISP.    INCREMENTS ARE ZERO
 ALL CORRECTION TO DISP.    ARE ZERO
          THERE IS ZERO FORCE     EVERYWHERE

 AVERAGE HEAT FLUX                  2.176E-04   TIME AVG. HEAT FLUX   1.019E-03
 LARGEST RESIDUAL HEAT FLUX        -7.767E-20   AT NODE          2   DOF 11
   INSTANCE: CUBE_ASSEMBLY                                                                   
 LARGEST INCREMENT OF TEMP.         0.551       AT NODE          2   DOF 11
   INSTANCE: CUBE_ASSEMBLY                                                                   
 LARGEST CORRECTION TO TEMP.       -3.487E-03   AT NODE          8   DOF 11
   INSTANCE: CUBE_ASSEMBLY                                                                   
          THE HEAT FLUX EQUILIBRIUM RESPONSE WAS LINEAR IN THIS INCREMENT

 MAXIMUM NON-PRESCRIBED INCREMENT IN TEMPERATURE IS   0.551    

 ITERATION SUMMARY FOR THE INCREMENT:   1 TOTAL ITERATIONS, OF WHICH
   0 ARE SEVERE DISCONTINUITY ITERATIONS AND  1 ARE EQUILIBRIUM ITERATIONS.

 TIME INCREMENT COMPLETED   1.00    ,  FRACTION OF STEP COMPLETED  0.220    
 STEP TIME COMPLETED        22.0    ,  TOTAL TIME COMPLETED         22.0    


  INCREMENT    23 STARTS. ATTEMPT NUMBER  1, TIME INCREMENT   1.00    
 
	UNSYMMETRIC NEW DIRECT SPARSE SOLVER RUNNING ON
 	1 HOST x 1 MPI RANK PER HOST x 1 THREAD PER RANK
        NUMBER OF EQUATIONS:  32
        NUMBER OF RHS:        1
        NUMBER OF FLOPS:      2.189e+04
        SOLVER ELAPSED TIME:  0ms

               CONVERGENCE CHECKS FOR EQUILIBRIUM ITERATION     1


 AVERAGE FORCE                       0.00       TIME AVG. FORCE       1.000E-02
 ALL FORCE     RESIDUALS ARE ZERO
 ALL DISP.    INCREMENTS ARE ZERO
 ALL CORRECTION TO DISP.    ARE ZERO
          THERE IS ZERO FORCE     EVERYWHERE

 AVERAGE HEAT FLUX                  2.162E-04   TIME AVG. HEAT FLUX   9.841E-04
 LARGEST RESIDUAL HEAT FLUX         7.819E-20   AT NODE          2   DOF 11
   INSTANCE: CUBE_ASSEMBLY                                                                   
 LARGEST INCREMENT OF TEMP.         0.547       AT NODE          6   DOF 11
   INSTANCE: CUBE_ASSEMBLY                                                                   
 LARGEST CORRECTION TO TEMP.       -3.465E-03   AT NODE          2   DOF 11
   INSTANCE: CUBE_ASSEMBLY                                                                   
          THE HEAT FLUX EQUILIBRIUM RESPONSE WAS LINEAR IN THIS INCREMENT

 MAXIMUM NON-PRESCRIBED INCREMENT IN TEMPERATURE IS   0.547    

 ITERATION SUMMARY FOR THE INCREMENT:   1 TOTAL ITERATIONS, OF WHICH
   0 ARE SEVERE DISCONTINUITY ITERATIONS AND  1 ARE EQUILIBRIUM ITERATIONS.

 TIME INCREMENT COMPLETED   1.00    ,  FRACTION OF STEP COMPLETED  0.230    
 STEP TIME COMPLETED        23.0    ,  TOTAL TIME COMPLETED         23.0    


  INCREMENT    24 STARTS. ATTEMPT NUMBER  1, TIME INCREMENT   1.00    
 
	UNSYMMETRIC NEW DIRECT SPARSE SOLVER RUNNING ON
 	1 HOST x 1 MPI RANK PER HOST x 1 THREAD PER RANK
        NUMBER OF EQUATIONS:  32
        NUMBER OF RHS:        1
        NUMBER OF FLOPS:      2.189e+04
        SOLVER ELAPSED TIME:  0ms

               CONVERGENCE CHECKS FOR EQUILIBRIUM ITERATION     1


 AVERAGE FORCE                       0.00       TIME AVG. FORCE       1.000E-02
 ALL FORCE     RESIDUALS ARE ZERO
 ALL DISP.    INCREMENTS ARE ZERO
 ALL CORRECTION TO DISP.    ARE ZERO
          THERE IS ZERO FORCE     EVERYWHERE

 AVERAGE HEAT FLUX                  2.149E-04   TIME AVG. HEAT FLUX   9.521E-04
 LARGEST RESIDUAL HEAT FLUX        -8.327E-20   AT NODE          4   DOF 11
   INSTANCE: CUBE_ASSEMBLY                                                                   
 LARGEST INCREMENT OF TEMP.         0.544       AT NODE          2   DOF 11
   INSTANCE: CUBE_ASSEMBLY                                                                   
 LARGEST CORRECTION TO TEMP.       -3.443E-03   AT NODE          4   DOF 11
   INSTANCE: CUBE_ASSEMBLY                                                                   
          THE HEAT FLUX EQUILIBRIUM RESPONSE WAS LINEAR IN THIS INCREMENT

 MAXIMUM NON-PRESCRIBED INCREMENT IN TEMPERATURE IS   0.544    

 ITERATION SUMMARY FOR THE INCREMENT:   1 TOTAL ITERATIONS, OF WHICH
   0 ARE SEVERE DISCONTINUITY ITERATIONS AND  1 ARE EQUILIBRIUM ITERATIONS.

 TIME INCREMENT COMPLETED   1.00    ,  FRACTION OF STEP COMPLETED  0.240    
 STEP TIME COMPLETED        24.0    ,  TOTAL TIME COMPLETED         24.0    


  INCREMENT    25 STARTS. ATTEMPT NUMBER  1, TIME INCREMENT   1.00    
 
	UNSYMMETRIC NEW DIRECT SPARSE SOLVER RUNNING ON
 	1 HOST x 1 MPI RANK PER HOST x 1 THREAD PER RANK
        NUMBER OF EQUATIONS:  32
        NUMBER OF RHS:        1
        NUMBER OF FLOPS:      2.189e+04
        SOLVER ELAPSED TIME:  1ms

               CONVERGENCE CHECKS FOR EQUILIBRIUM ITERATION     1


 AVERAGE FORCE                       0.00       TIME AVG. FORCE       1.000E-02
 ALL FORCE     RESIDUALS ARE ZERO
 ALL DISP.    INCREMENTS ARE ZERO
 ALL CORRECTION TO DISP.    ARE ZERO
          THERE IS ZERO FORCE     EVERYWHERE

 AVERAGE HEAT FLUX                  2.135E-04   TIME AVG. HEAT FLUX   9.225E-04
 LARGEST RESIDUAL HEAT FLUX        -2.130E-20   AT NODE          8   DOF 11
   INSTANCE: CUBE_ASSEMBLY                                                                   
 LARGEST INCREMENT OF TEMP.         0.541       AT NODE          2   DOF 11
   INSTANCE: CUBE_ASSEMBLY                                                                   
 LARGEST CORRECTION TO TEMP.       -3.421E-03   AT NODE          4   DOF 11
   INSTANCE: CUBE_ASSEMBLY                                                                   
          THE HEAT FLUX EQUILIBRIUM RESPONSE WAS LINEAR IN THIS INCREMENT

 MAXIMUM NON-PRESCRIBED INCREMENT IN TEMPERATURE IS   0.541    

 ITERATION SUMMARY FOR THE INCREMENT:   1 TOTAL ITERATIONS, OF WHICH
   0 ARE SEVERE DISCONTINUITY ITERATIONS AND  1 ARE EQUILIBRIUM ITERATIONS.

 TIME INCREMENT COMPLETED   1.00    ,  FRACTION OF STEP COMPLETED  0.250    
 STEP TIME COMPLETED        25.0    ,  TOTAL TIME COMPLETED         25.0    


  INCREMENT    26 STARTS. ATTEMPT NUMBER  1, TIME INCREMENT   1.00    
 
	UNSYMMETRIC NEW DIRECT SPARSE SOLVER RUNNING ON
 	1 HOST x 1 MPI RANK PER HOST x 1 THREAD PER RANK
        NUMBER OF EQUATIONS:  32
        NUMBER OF RHS:        1
        NUMBER OF FLOPS:      2.189e+04
        SOLVER ELAPSED TIME:  1ms

               CONVERGENCE CHECKS FOR EQUILIBRIUM ITERATION     1


 AVERAGE FORCE                       0.00       TIME AVG. FORCE       1.000E-02
 ALL FORCE     RESIDUALS ARE ZERO
 ALL DISP.    INCREMENTS ARE ZERO
 ALL CORRECTION TO DISP.    ARE ZERO
          THERE IS ZERO FORCE     EVERYWHERE

 AVERAGE HEAT FLUX                  2.122E-04   TIME AVG. HEAT FLUX   8.952E-04
 LARGEST RESIDUAL HEAT FLUX        -4.717E-20   AT NODE          2   DOF 11
   INSTANCE: CUBE_ASSEMBLY                                                                   
 LARGEST INCREMENT OF TEMP.         0.537       AT NODE          2   DOF 11
   INSTANCE: CUBE_ASSEMBLY                                                                   
 LARGEST CORRECTION TO TEMP.       -3.400E-03   AT NODE          6   DOF 11
   INSTANCE: CUBE_ASSEMBLY                                                                   
          THE HEAT FLUX EQUILIBRIUM RESPONSE WAS LINEAR IN THIS INCREMENT

 MAXIMUM NON-PRESCRIBED INCREMENT IN TEMPERATURE IS   0.537    

 ITERATION SUMMARY FOR THE INCREMENT:   1 TOTAL ITERATIONS, OF WHICH
   0 ARE SEVERE DISCONTINUITY ITERATIONS AND  1 ARE EQUILIBRIUM ITERATIONS.

 TIME INCREMENT COMPLETED   1.00    ,  FRACTION OF STEP COMPLETED  0.260    
 STEP TIME COMPLETED        26.0    ,  TOTAL TIME COMPLETED         26.0    


  INCREMENT    27 STARTS. ATTEMPT NUMBER  1, TIME INCREMENT   1.00    
 
	UNSYMMETRIC NEW DIRECT SPARSE SOLVER RUNNING ON
 	1 HOST x 1 MPI RANK PER HOST x 1 THREAD PER RANK
        NUMBER OF EQUATIONS:  32
        NUMBER OF RHS:        1
        NUMBER OF FLOPS:      2.189e+04
        SOLVER ELAPSED TIME:  1ms

               CONVERGENCE CHECKS FOR EQUILIBRIUM ITERATION     1


 AVERAGE FORCE                       0.00       TIME AVG. FORCE       1.000E-02
 ALL FORCE     RESIDUALS ARE ZERO
 ALL DISP.    INCREMENTS ARE ZERO
 ALL CORRECTION TO DISP.    ARE ZERO
          THERE IS ZERO FORCE     EVERYWHERE

 AVERAGE HEAT FLUX                  2.108E-04   TIME AVG. HEAT FLUX   8.699E-04
 LARGEST RESIDUAL HEAT FLUX         2.059E-20   AT NODE          2   DOF 11
   INSTANCE: CUBE_ASSEMBLY                                                                   
 LARGEST INCREMENT OF TEMP.         0.534       AT NODE          2   DOF 11
   INSTANCE: CUBE_ASSEMBLY                                                                   
 LARGEST CORRECTION TO TEMP.       -3.378E-03   AT NODE          2   DOF 11
   INSTANCE: CUBE_ASSEMBLY                                                                   
          THE HEAT FLUX EQUILIBRIUM RESPONSE WAS LINEAR IN THIS INCREMENT

 MAXIMUM NON-PRESCRIBED INCREMENT IN TEMPERATURE IS   0.534    

 ITERATION SUMMARY FOR THE INCREMENT:   1 TOTAL ITERATIONS, OF WHICH
   0 ARE SEVERE DISCONTINUITY ITERATIONS AND  1 ARE EQUILIBRIUM ITERATIONS.

 TIME INCREMENT COMPLETED   1.00    ,  FRACTION OF STEP COMPLETED  0.270    
 STEP TIME COMPLETED        27.0    ,  TOTAL TIME COMPLETED         27.0    


  INCREMENT    28 STARTS. ATTEMPT NUMBER  1, TIME INCREMENT   1.00    
 
	UNSYMMETRIC NEW DIRECT SPARSE SOLVER RUNNING ON
 	1 HOST x 1 MPI RANK PER HOST x 1 THREAD PER RANK
        NUMBER OF EQUATIONS:  32
        NUMBER OF RHS:        1
        NUMBER OF FLOPS:      2.189e+04
        SOLVER ELAPSED TIME:  1ms

               CONVERGENCE CHECKS FOR EQUILIBRIUM ITERATION     1


 AVERAGE FORCE                       0.00       TIME AVG. FORCE       1.000E-02
 ALL FORCE     RESIDUALS ARE ZERO
 ALL DISP.    INCREMENTS ARE ZERO
 ALL CORRECTION TO DISP.    ARE ZERO
          THERE IS ZERO FORCE     EVERYWHERE

 AVERAGE HEAT FLUX                  2.095E-04   TIME AVG. HEAT FLUX   8.463E-04
 LARGEST RESIDUAL HEAT FLUX         4.717E-20   AT NODE          4   DOF 11
   INSTANCE: CUBE_ASSEMBLY                                                                   
 LARGEST INCREMENT OF TEMP.         0.530       AT NODE          2   DOF 11
   INSTANCE: CUBE_ASSEMBLY                                                                   
 LARGEST CORRECTION TO TEMP.       -3.357E-03   AT NODE          4   DOF 11
   INSTANCE: CUBE_ASSEMBLY                                                                   
          THE HEAT FLUX EQUILIBRIUM RESPONSE WAS LINEAR IN THIS INCREMENT

 MAXIMUM NON-PRESCRIBED INCREMENT IN TEMPERATURE IS   0.530    

 ITERATION SUMMARY FOR THE INCREMENT:   1 TOTAL ITERATIONS, OF WHICH
   0 ARE SEVERE DISCONTINUITY ITERATIONS AND  1 ARE EQUILIBRIUM ITERATIONS.

 TIME INCREMENT COMPLETED   1.00    ,  FRACTION OF STEP COMPLETED  0.280    
 STEP TIME COMPLETED        28.0    ,  TOTAL TIME COMPLETED         28.0    


  INCREMENT    29 STARTS. ATTEMPT NUMBER  1, TIME INCREMENT   1.00    
 
	UNSYMMETRIC NEW DIRECT SPARSE SOLVER RUNNING ON
 	1 HOST x 1 MPI RANK PER HOST x 1 THREAD PER RANK
        NUMBER OF EQUATIONS:  32
        NUMBER OF RHS:        1
        NUMBER OF FLOPS:      2.189e+04
        SOLVER ELAPSED TIME:  1ms

               CONVERGENCE CHECKS FOR EQUILIBRIUM ITERATION     1


 AVERAGE FORCE                       0.00       TIME AVG. FORCE       1.000E-02
 ALL FORCE     RESIDUALS ARE ZERO
 ALL DISP.    INCREMENTS ARE ZERO
 ALL CORRECTION TO DISP.    ARE ZERO
          THERE IS ZERO FORCE     EVERYWHERE

 AVERAGE HEAT FLUX                  2.082E-04   TIME AVG. HEAT FLUX   8.243E-04
 LARGEST RESIDUAL HEAT FLUX        -1.668E-20   AT NODE          2   DOF 11
   INSTANCE: CUBE_ASSEMBLY                                                                   
 LARGEST INCREMENT OF TEMP.         0.527       AT NODE          2   DOF 11
   INSTANCE: CUBE_ASSEMBLY                                                                   
 LARGEST CORRECTION TO TEMP.       -3.336E-03   AT NODE          6   DOF 11
   INSTANCE: CUBE_ASSEMBLY                                                                   
          THE HEAT FLUX EQUILIBRIUM RESPONSE WAS LINEAR IN THIS INCREMENT

 MAXIMUM NON-PRESCRIBED INCREMENT IN TEMPERATURE IS   0.527    

 ITERATION SUMMARY FOR THE INCREMENT:   1 TOTAL ITERATIONS, OF WHICH
   0 ARE SEVERE DISCONTINUITY ITERATIONS AND  1 ARE EQUILIBRIUM ITERATIONS.

 TIME INCREMENT COMPLETED   1.00    ,  FRACTION OF STEP COMPLETED  0.290    
 STEP TIME COMPLETED        29.0    ,  TOTAL TIME COMPLETED         29.0    


  INCREMENT    30 STARTS. ATTEMPT NUMBER  1, TIME INCREMENT   1.00    
 
	UNSYMMETRIC NEW DIRECT SPARSE SOLVER RUNNING ON
 	1 HOST x 1 MPI RANK PER HOST x 1 THREAD PER RANK
        NUMBER OF EQUATIONS:  32
        NUMBER OF RHS:        1
        NUMBER OF FLOPS:      2.189e+04
        SOLVER ELAPSED TIME:  1ms

               CONVERGENCE CHECKS FOR EQUILIBRIUM ITERATION     1


 AVERAGE FORCE                       0.00       TIME AVG. FORCE       1.000E-02
 ALL FORCE     RESIDUALS ARE ZERO
 ALL DISP.    INCREMENTS ARE ZERO
 ALL CORRECTION TO DISP.    ARE ZERO
          THERE IS ZERO FORCE     EVERYWHERE

 AVERAGE HEAT FLUX                  2.069E-04   TIME AVG. HEAT FLUX   8.037E-04
 LARGEST RESIDUAL HEAT FLUX         4.163E-20   AT NODE          6   DOF 11
   INSTANCE: CUBE_ASSEMBLY                                                                   
 LARGEST INCREMENT OF TEMP.         0.524       AT NODE          8   DOF 11
   INSTANCE: CUBE_ASSEMBLY                                                                   
 LARGEST CORRECTION TO TEMP.       -3.315E-03   AT NODE          2   DOF 11
   INSTANCE: CUBE_ASSEMBLY                                                                   
          THE HEAT FLUX EQUILIBRIUM RESPONSE WAS LINEAR IN THIS INCREMENT

 MAXIMUM NON-PRESCRIBED INCREMENT IN TEMPERATURE IS   0.524    

 ITERATION SUMMARY FOR THE INCREMENT:   1 TOTAL ITERATIONS, OF WHICH
   0 ARE SEVERE DISCONTINUITY ITERATIONS AND  1 ARE EQUILIBRIUM ITERATIONS.

 TIME INCREMENT COMPLETED   1.00    ,  FRACTION OF STEP COMPLETED  0.300    
 STEP TIME COMPLETED        30.0    ,  TOTAL TIME COMPLETED         30.0    


  INCREMENT    31 STARTS. ATTEMPT NUMBER  1, TIME INCREMENT   1.00    
 
	UNSYMMETRIC NEW DIRECT SPARSE SOLVER RUNNING ON
 	1 HOST x 1 MPI RANK PER HOST x 1 THREAD PER RANK
        NUMBER OF EQUATIONS:  32
        NUMBER OF RHS:        1
        NUMBER OF FLOPS:      2.189e+04
        SOLVER ELAPSED TIME:  1ms

               CONVERGENCE CHECKS FOR EQUILIBRIUM ITERATION     1


 AVERAGE FORCE                       0.00       TIME AVG. FORCE       1.000E-02
 ALL FORCE     RESIDUALS ARE ZERO
 ALL DISP.    INCREMENTS ARE ZERO
 ALL CORRECTION TO DISP.    ARE ZERO
          THERE IS ZERO FORCE     EVERYWHERE

 AVERAGE HEAT FLUX                  2.056E-04   TIME AVG. HEAT FLUX   7.844E-04
 LARGEST RESIDUAL HEAT FLUX         3.014E-20   AT NODE          4   DOF 11
   INSTANCE: CUBE_ASSEMBLY                                                                   
 LARGEST INCREMENT OF TEMP.         0.520       AT NODE          6   DOF 11
   INSTANCE: CUBE_ASSEMBLY                                                                   
 LARGEST CORRECTION TO TEMP.       -3.294E-03   AT NODE          4   DOF 11
   INSTANCE: CUBE_ASSEMBLY                                                                   
          THE HEAT FLUX EQUILIBRIUM RESPONSE WAS LINEAR IN THIS INCREMENT

 MAXIMUM NON-PRESCRIBED INCREMENT IN TEMPERATURE IS   0.520    

 ITERATION SUMMARY FOR THE INCREMENT:   1 TOTAL ITERATIONS, OF WHICH
   0 ARE SEVERE DISCONTINUITY ITERATIONS AND  1 ARE EQUILIBRIUM ITERATIONS.

 TIME INCREMENT COMPLETED   1.00    ,  FRACTION OF STEP COMPLETED  0.310    
 STEP TIME COMPLETED        31.0    ,  TOTAL TIME COMPLETED         31.0    


  INCREMENT    32 STARTS. ATTEMPT NUMBER  1, TIME INCREMENT   1.00    
 
	UNSYMMETRIC NEW DIRECT SPARSE SOLVER RUNNING ON
 	1 HOST x 1 MPI RANK PER HOST x 1 THREAD PER RANK
        NUMBER OF EQUATIONS:  32
        NUMBER OF RHS:        1
        NUMBER OF FLOPS:      2.189e+04
        SOLVER ELAPSED TIME:  1ms

               CONVERGENCE CHECKS FOR EQUILIBRIUM ITERATION     1


 AVERAGE FORCE                       0.00       TIME AVG. FORCE       1.000E-02
 ALL FORCE     RESIDUALS ARE ZERO
 ALL DISP.    INCREMENTS ARE ZERO
 ALL CORRECTION TO DISP.    ARE ZERO
          THERE IS ZERO FORCE     EVERYWHERE

 AVERAGE HEAT FLUX                  2.043E-04   TIME AVG. HEAT FLUX   7.663E-04
 LARGEST RESIDUAL HEAT FLUX         7.089E-20   AT NODE          4   DOF 11
   INSTANCE: CUBE_ASSEMBLY                                                                   
 LARGEST INCREMENT OF TEMP.         0.517       AT NODE          6   DOF 11
   INSTANCE: CUBE_ASSEMBLY                                                                   
 LARGEST CORRECTION TO TEMP.       -3.273E-03   AT NODE          8   DOF 11
   INSTANCE: CUBE_ASSEMBLY                                                                   
          THE HEAT FLUX EQUILIBRIUM RESPONSE WAS LINEAR IN THIS INCREMENT

 MAXIMUM NON-PRESCRIBED INCREMENT IN TEMPERATURE IS   0.517    

 ITERATION SUMMARY FOR THE INCREMENT:   1 TOTAL ITERATIONS, OF WHICH
   0 ARE SEVERE DISCONTINUITY ITERATIONS AND  1 ARE EQUILIBRIUM ITERATIONS.

 TIME INCREMENT COMPLETED   1.00    ,  FRACTION OF STEP COMPLETED  0.320    
 STEP TIME COMPLETED        32.0    ,  TOTAL TIME COMPLETED         32.0    


  INCREMENT    33 STARTS. ATTEMPT NUMBER  1, TIME INCREMENT   1.00    
 
	UNSYMMETRIC NEW DIRECT SPARSE SOLVER RUNNING ON
 	1 HOST x 1 MPI RANK PER HOST x 1 THREAD PER RANK
        NUMBER OF EQUATIONS:  32
        NUMBER OF RHS:        1
        NUMBER OF FLOPS:      2.189e+04
        SOLVER ELAPSED TIME:  1ms

               CONVERGENCE CHECKS FOR EQUILIBRIUM ITERATION     1


 AVERAGE FORCE                       0.00       TIME AVG. FORCE       1.000E-02
 ALL FORCE     RESIDUALS ARE ZERO
 ALL DISP.    INCREMENTS ARE ZERO
 ALL CORRECTION TO DISP.    ARE ZERO
          THERE IS ZERO FORCE     EVERYWHERE

 AVERAGE HEAT FLUX                  2.030E-04   TIME AVG. HEAT FLUX   7.492E-04
 LARGEST RESIDUAL HEAT FLUX        -4.685E-20   AT NODE          4   DOF 11
   INSTANCE: CUBE_ASSEMBLY                                                                   
 LARGEST INCREMENT OF TEMP.         0.514       AT NODE          6   DOF 11
   INSTANCE: CUBE_ASSEMBLY                                                                   
 LARGEST CORRECTION TO TEMP.       -3.253E-03   AT NODE          6   DOF 11
   INSTANCE: CUBE_ASSEMBLY                                                                   
          THE HEAT FLUX EQUILIBRIUM RESPONSE WAS LINEAR IN THIS INCREMENT

 MAXIMUM NON-PRESCRIBED INCREMENT IN TEMPERATURE IS   0.514    

 ITERATION SUMMARY FOR THE INCREMENT:   1 TOTAL ITERATIONS, OF WHICH
   0 ARE SEVERE DISCONTINUITY ITERATIONS AND  1 ARE EQUILIBRIUM ITERATIONS.

 TIME INCREMENT COMPLETED   1.00    ,  FRACTION OF STEP COMPLETED  0.330    
 STEP TIME COMPLETED        33.0    ,  TOTAL TIME COMPLETED         33.0    


  INCREMENT    34 STARTS. ATTEMPT NUMBER  1, TIME INCREMENT   1.00    
 
	UNSYMMETRIC NEW DIRECT SPARSE SOLVER RUNNING ON
 	1 HOST x 1 MPI RANK PER HOST x 1 THREAD PER RANK
        NUMBER OF EQUATIONS:  32
        NUMBER OF RHS:        1
        NUMBER OF FLOPS:      2.189e+04
        SOLVER ELAPSED TIME:  1ms

               CONVERGENCE CHECKS FOR EQUILIBRIUM ITERATION     1


 AVERAGE FORCE                       0.00       TIME AVG. FORCE       1.000E-02
 ALL FORCE     RESIDUALS ARE ZERO
 ALL DISP.    INCREMENTS ARE ZERO
 ALL CORRECTION TO DISP.    ARE ZERO
          THERE IS ZERO FORCE     EVERYWHERE

 AVERAGE HEAT FLUX                  2.017E-04   TIME AVG. HEAT FLUX   7.331E-04
 LARGEST RESIDUAL HEAT FLUX         7.640E-20   AT NODE          8   DOF 11
   INSTANCE: CUBE_ASSEMBLY                                                                   
 LARGEST INCREMENT OF TEMP.         0.511       AT NODE          2   DOF 11
   INSTANCE: CUBE_ASSEMBLY                                                                   
 LARGEST CORRECTION TO TEMP.       -3.232E-03   AT NODE          6   DOF 11
   INSTANCE: CUBE_ASSEMBLY                                                                   
          THE HEAT FLUX EQUILIBRIUM RESPONSE WAS LINEAR IN THIS INCREMENT

 MAXIMUM NON-PRESCRIBED INCREMENT IN TEMPERATURE IS   0.511    

 ITERATION SUMMARY FOR THE INCREMENT:   1 TOTAL ITERATIONS, OF WHICH
   0 ARE SEVERE DISCONTINUITY ITERATIONS AND  1 ARE EQUILIBRIUM ITERATIONS.

 TIME INCREMENT COMPLETED   1.00    ,  FRACTION OF STEP COMPLETED  0.340    
 STEP TIME COMPLETED        34.0    ,  TOTAL TIME COMPLETED         34.0    


  INCREMENT    35 STARTS. ATTEMPT NUMBER  1, TIME INCREMENT   1.00    
 
	UNSYMMETRIC NEW DIRECT SPARSE SOLVER RUNNING ON
 	1 HOST x 1 MPI RANK PER HOST x 1 THREAD PER RANK
        NUMBER OF EQUATIONS:  32
        NUMBER OF RHS:        1
        NUMBER OF FLOPS:      2.189e+04
        SOLVER ELAPSED TIME:  1ms

               CONVERGENCE CHECKS FOR EQUILIBRIUM ITERATION     1


 AVERAGE FORCE                       0.00       TIME AVG. FORCE       1.000E-02
 ALL FORCE     RESIDUALS ARE ZERO
 ALL DISP.    INCREMENTS ARE ZERO
 ALL CORRECTION TO DISP.    ARE ZERO
          THERE IS ZERO FORCE     EVERYWHERE

 AVERAGE HEAT FLUX                  2.005E-04   TIME AVG. HEAT FLUX   7.179E-04
 LARGEST RESIDUAL HEAT FLUX        -8.034E-20   AT NODE          6   DOF 11
   INSTANCE: CUBE_ASSEMBLY                                                                   
 LARGEST INCREMENT OF TEMP.         0.508       AT NODE          6   DOF 11
   INSTANCE: CUBE_ASSEMBLY                                                                   
 LARGEST CORRECTION TO TEMP.       -3.212E-03   AT NODE          2   DOF 11
   INSTANCE: CUBE_ASSEMBLY                                                                   
          THE HEAT FLUX EQUILIBRIUM RESPONSE WAS LINEAR IN THIS INCREMENT

 MAXIMUM NON-PRESCRIBED INCREMENT IN TEMPERATURE IS   0.508    

 ITERATION SUMMARY FOR THE INCREMENT:   1 TOTAL ITERATIONS, OF WHICH
   0 ARE SEVERE DISCONTINUITY ITERATIONS AND  1 ARE EQUILIBRIUM ITERATIONS.

 TIME INCREMENT COMPLETED   1.00    ,  FRACTION OF STEP COMPLETED  0.350    
 STEP TIME COMPLETED        35.0    ,  TOTAL TIME COMPLETED         35.0    


  INCREMENT    36 STARTS. ATTEMPT NUMBER  1, TIME INCREMENT   1.00    
 
	UNSYMMETRIC NEW DIRECT SPARSE SOLVER RUNNING ON
 	1 HOST x 1 MPI RANK PER HOST x 1 THREAD PER RANK
        NUMBER OF EQUATIONS:  32
        NUMBER OF RHS:        1
        NUMBER OF FLOPS:      2.189e+04
        SOLVER ELAPSED TIME:  1ms

               CONVERGENCE CHECKS FOR EQUILIBRIUM ITERATION     1


 AVERAGE FORCE                       0.00       TIME AVG. FORCE       1.000E-02
 ALL FORCE     RESIDUALS ARE ZERO
 ALL DISP.    INCREMENTS ARE ZERO
 ALL CORRECTION TO DISP.    ARE ZERO
          THERE IS ZERO FORCE     EVERYWHERE

 AVERAGE HEAT FLUX                  1.992E-04   TIME AVG. HEAT FLUX   7.035E-04
 LARGEST RESIDUAL HEAT FLUX        -1.095E-19   AT NODE          4   DOF 11
   INSTANCE: CUBE_ASSEMBLY                                                                   
 LARGEST INCREMENT OF TEMP.         0.504       AT NODE          8   DOF 11
   INSTANCE: CUBE_ASSEMBLY                                                                   
 LARGEST CORRECTION TO TEMP.       -3.192E-03   AT NODE          6   DOF 11
   INSTANCE: CUBE_ASSEMBLY                                                                   
          THE HEAT FLUX EQUILIBRIUM RESPONSE WAS LINEAR IN THIS INCREMENT

 MAXIMUM NON-PRESCRIBED INCREMENT IN TEMPERATURE IS   0.504    

 ITERATION SUMMARY FOR THE INCREMENT:   1 TOTAL ITERATIONS, OF WHICH
   0 ARE SEVERE DISCONTINUITY ITERATIONS AND  1 ARE EQUILIBRIUM ITERATIONS.

 TIME INCREMENT COMPLETED   1.00    ,  FRACTION OF STEP COMPLETED  0.360    
 STEP TIME COMPLETED        36.0    ,  TOTAL TIME COMPLETED         36.0    


  INCREMENT    37 STARTS. ATTEMPT NUMBER  1, TIME INCREMENT   1.00    
 
	UNSYMMETRIC NEW DIRECT SPARSE SOLVER RUNNING ON
 	1 HOST x 1 MPI RANK PER HOST x 1 THREAD PER RANK
        NUMBER OF EQUATIONS:  32
        NUMBER OF RHS:        1
        NUMBER OF FLOPS:      2.189e+04
        SOLVER ELAPSED TIME:  0ms

               CONVERGENCE CHECKS FOR EQUILIBRIUM ITERATION     1


 AVERAGE FORCE                       0.00       TIME AVG. FORCE       1.000E-02
 ALL FORCE     RESIDUALS ARE ZERO
 ALL DISP.    INCREMENTS ARE ZERO
 ALL CORRECTION TO DISP.    ARE ZERO
          THERE IS ZERO FORCE     EVERYWHERE

 AVERAGE HEAT FLUX                  1.980E-04   TIME AVG. HEAT FLUX   6.898E-04
 LARGEST RESIDUAL HEAT FLUX         9.852E-20   AT NODE          2   DOF 11
   INSTANCE: CUBE_ASSEMBLY                                                                   
 LARGEST INCREMENT OF TEMP.         0.501       AT NODE          8   DOF 11
   INSTANCE: CUBE_ASSEMBLY                                                                   
 LARGEST CORRECTION TO TEMP.       -3.172E-03   AT NODE          4   DOF 11
   INSTANCE: CUBE_ASSEMBLY                                                                   
          THE HEAT FLUX EQUILIBRIUM RESPONSE WAS LINEAR IN THIS INCREMENT

 MAXIMUM NON-PRESCRIBED INCREMENT IN TEMPERATURE IS   0.501    

 ITERATION SUMMARY FOR THE INCREMENT:   1 TOTAL ITERATIONS, OF WHICH
   0 ARE SEVERE DISCONTINUITY ITERATIONS AND  1 ARE EQUILIBRIUM ITERATIONS.

 TIME INCREMENT COMPLETED   1.00    ,  FRACTION OF STEP COMPLETED  0.370    
 STEP TIME COMPLETED        37.0    ,  TOTAL TIME COMPLETED         37.0    


  INCREMENT    38 STARTS. ATTEMPT NUMBER  1, TIME INCREMENT   1.00    
 
	UNSYMMETRIC NEW DIRECT SPARSE SOLVER RUNNING ON
 	1 HOST x 1 MPI RANK PER HOST x 1 THREAD PER RANK
        NUMBER OF EQUATIONS:  32
        NUMBER OF RHS:        1
        NUMBER OF FLOPS:      2.189e+04
        SOLVER ELAPSED TIME:  1ms

               CONVERGENCE CHECKS FOR EQUILIBRIUM ITERATION     1


 AVERAGE FORCE                       0.00       TIME AVG. FORCE       1.000E-02
 ALL FORCE     RESIDUALS ARE ZERO
 ALL DISP.    INCREMENTS ARE ZERO
 ALL CORRECTION TO DISP.    ARE ZERO
          THERE IS ZERO FORCE     EVERYWHERE

 AVERAGE HEAT FLUX                  1.967E-04   TIME AVG. HEAT FLUX   6.768E-04
 LARGEST RESIDUAL HEAT FLUX        -5.607E-20   AT NODE          6   DOF 11
   INSTANCE: CUBE_ASSEMBLY                                                                   
 LARGEST INCREMENT OF TEMP.         0.498       AT NODE          6   DOF 11
   INSTANCE: CUBE_ASSEMBLY                                                                   
 LARGEST CORRECTION TO TEMP.       -3.152E-03   AT NODE          8   DOF 11
   INSTANCE: CUBE_ASSEMBLY                                                                   
          THE HEAT FLUX EQUILIBRIUM RESPONSE WAS LINEAR IN THIS INCREMENT

 MAXIMUM NON-PRESCRIBED INCREMENT IN TEMPERATURE IS   0.498    

 ITERATION SUMMARY FOR THE INCREMENT:   1 TOTAL ITERATIONS, OF WHICH
   0 ARE SEVERE DISCONTINUITY ITERATIONS AND  1 ARE EQUILIBRIUM ITERATIONS.

 TIME INCREMENT COMPLETED   1.00    ,  FRACTION OF STEP COMPLETED  0.380    
 STEP TIME COMPLETED        38.0    ,  TOTAL TIME COMPLETED         38.0    


  INCREMENT    39 STARTS. ATTEMPT NUMBER  1, TIME INCREMENT   1.00    
 
	UNSYMMETRIC NEW DIRECT SPARSE SOLVER RUNNING ON
 	1 HOST x 1 MPI RANK PER HOST x 1 THREAD PER RANK
        NUMBER OF EQUATIONS:  32
        NUMBER OF RHS:        1
        NUMBER OF FLOPS:      2.189e+04
        SOLVER ELAPSED TIME:  1ms

               CONVERGENCE CHECKS FOR EQUILIBRIUM ITERATION     1


 AVERAGE FORCE                       0.00       TIME AVG. FORCE       1.000E-02
 ALL FORCE     RESIDUALS ARE ZERO
 ALL DISP.    INCREMENTS ARE ZERO
 ALL CORRECTION TO DISP.    ARE ZERO
          THERE IS ZERO FORCE     EVERYWHERE

 AVERAGE HEAT FLUX                  1.955E-04   TIME AVG. HEAT FLUX   6.645E-04
 LARGEST RESIDUAL HEAT FLUX         5.913E-20   AT NODE          6   DOF 11
   INSTANCE: CUBE_ASSEMBLY                                                                   
 LARGEST INCREMENT OF TEMP.         0.495       AT NODE          2   DOF 11
   INSTANCE: CUBE_ASSEMBLY                                                                   
 LARGEST CORRECTION TO TEMP.       -3.132E-03   AT NODE          6   DOF 11
   INSTANCE: CUBE_ASSEMBLY                                                                   
          THE HEAT FLUX EQUILIBRIUM RESPONSE WAS LINEAR IN THIS INCREMENT

 MAXIMUM NON-PRESCRIBED INCREMENT IN TEMPERATURE IS   0.495    

 ITERATION SUMMARY FOR THE INCREMENT:   1 TOTAL ITERATIONS, OF WHICH
   0 ARE SEVERE DISCONTINUITY ITERATIONS AND  1 ARE EQUILIBRIUM ITERATIONS.

 TIME INCREMENT COMPLETED   1.00    ,  FRACTION OF STEP COMPLETED  0.390    
 STEP TIME COMPLETED        39.0    ,  TOTAL TIME COMPLETED         39.0    


  INCREMENT    40 STARTS. ATTEMPT NUMBER  1, TIME INCREMENT   1.00    
 
	UNSYMMETRIC NEW DIRECT SPARSE SOLVER RUNNING ON
 	1 HOST x 1 MPI RANK PER HOST x 1 THREAD PER RANK
        NUMBER OF EQUATIONS:  32
        NUMBER OF RHS:        1
        NUMBER OF FLOPS:      2.189e+04
        SOLVER ELAPSED TIME:  1ms

               CONVERGENCE CHECKS FOR EQUILIBRIUM ITERATION     1


 AVERAGE FORCE                       0.00       TIME AVG. FORCE       1.000E-02
 ALL FORCE     RESIDUALS ARE ZERO
 ALL DISP.    INCREMENTS ARE ZERO
 ALL CORRECTION TO DISP.    ARE ZERO
          THERE IS ZERO FORCE     EVERYWHERE

 AVERAGE HEAT FLUX                  1.942E-04   TIME AVG. HEAT FLUX   6.527E-04
 LARGEST RESIDUAL HEAT FLUX         5.268E-20   AT NODE          8   DOF 11
   INSTANCE: CUBE_ASSEMBLY                                                                   
 LARGEST INCREMENT OF TEMP.         0.492       AT NODE          2   DOF 11
   INSTANCE: CUBE_ASSEMBLY                                                                   
 LARGEST CORRECTION TO TEMP.       -3.112E-03   AT NODE          2   DOF 11
   INSTANCE: CUBE_ASSEMBLY                                                                   
          THE HEAT FLUX EQUILIBRIUM RESPONSE WAS LINEAR IN THIS INCREMENT

 MAXIMUM NON-PRESCRIBED INCREMENT IN TEMPERATURE IS   0.492    

 ITERATION SUMMARY FOR THE INCREMENT:   1 TOTAL ITERATIONS, OF WHICH
   0 ARE SEVERE DISCONTINUITY ITERATIONS AND  1 ARE EQUILIBRIUM ITERATIONS.

 TIME INCREMENT COMPLETED   1.00    ,  FRACTION OF STEP COMPLETED  0.400    
 STEP TIME COMPLETED        40.0    ,  TOTAL TIME COMPLETED         40.0    


  INCREMENT    41 STARTS. ATTEMPT NUMBER  1, TIME INCREMENT   1.00    
 
	UNSYMMETRIC NEW DIRECT SPARSE SOLVER RUNNING ON
 	1 HOST x 1 MPI RANK PER HOST x 1 THREAD PER RANK
        NUMBER OF EQUATIONS:  32
        NUMBER OF RHS:        1
        NUMBER OF FLOPS:      2.189e+04
        SOLVER ELAPSED TIME:  1ms

               CONVERGENCE CHECKS FOR EQUILIBRIUM ITERATION     1


 AVERAGE FORCE                       0.00       TIME AVG. FORCE       1.000E-02
 ALL FORCE     RESIDUALS ARE ZERO
 ALL DISP.    INCREMENTS ARE ZERO
 ALL CORRECTION TO DISP.    ARE ZERO
          THERE IS ZERO FORCE     EVERYWHERE

 AVERAGE HEAT FLUX                  1.930E-04   TIME AVG. HEAT FLUX   6.415E-04
 LARGEST RESIDUAL HEAT FLUX        -5.913E-20   AT NODE          8   DOF 11
   INSTANCE: CUBE_ASSEMBLY                                                                   
 LARGEST INCREMENT OF TEMP.         0.489       AT NODE          6   DOF 11
   INSTANCE: CUBE_ASSEMBLY                                                                   
 LARGEST CORRECTION TO TEMP.       -3.093E-03   AT NODE          4   DOF 11
   INSTANCE: CUBE_ASSEMBLY                                                                   
          THE HEAT FLUX EQUILIBRIUM RESPONSE WAS LINEAR IN THIS INCREMENT

 MAXIMUM NON-PRESCRIBED INCREMENT IN TEMPERATURE IS   0.489    

 ITERATION SUMMARY FOR THE INCREMENT:   1 TOTAL ITERATIONS, OF WHICH
   0 ARE SEVERE DISCONTINUITY ITERATIONS AND  1 ARE EQUILIBRIUM ITERATIONS.

 TIME INCREMENT COMPLETED   1.00    ,  FRACTION OF STEP COMPLETED  0.410    
 STEP TIME COMPLETED        41.0    ,  TOTAL TIME COMPLETED         41.0    


  INCREMENT    42 STARTS. ATTEMPT NUMBER  1, TIME INCREMENT   1.00    
 
	UNSYMMETRIC NEW DIRECT SPARSE SOLVER RUNNING ON
 	1 HOST x 1 MPI RANK PER HOST x 1 THREAD PER RANK
        NUMBER OF EQUATIONS:  32
        NUMBER OF RHS:        1
        NUMBER OF FLOPS:      2.189e+04
        SOLVER ELAPSED TIME:  1ms

               CONVERGENCE CHECKS FOR EQUILIBRIUM ITERATION     1


 AVERAGE FORCE                       0.00       TIME AVG. FORCE       1.000E-02
 ALL FORCE     RESIDUALS ARE ZERO
 ALL DISP.    INCREMENTS ARE ZERO
 ALL CORRECTION TO DISP.    ARE ZERO
          THERE IS ZERO FORCE     EVERYWHERE

 AVERAGE HEAT FLUX                  1.918E-04   TIME AVG. HEAT FLUX   6.308E-04
 LARGEST RESIDUAL HEAT FLUX        -2.421E-20   AT NODE          2   DOF 11
   INSTANCE: CUBE_ASSEMBLY                                                                   
 LARGEST INCREMENT OF TEMP.         0.486       AT NODE          6   DOF 11
   INSTANCE: CUBE_ASSEMBLY                                                                   
 LARGEST CORRECTION TO TEMP.       -3.073E-03   AT NODE          6   DOF 11
   INSTANCE: CUBE_ASSEMBLY                                                                   
          THE HEAT FLUX EQUILIBRIUM RESPONSE WAS LINEAR IN THIS INCREMENT

 MAXIMUM NON-PRESCRIBED INCREMENT IN TEMPERATURE IS   0.486    

 ITERATION SUMMARY FOR THE INCREMENT:   1 TOTAL ITERATIONS, OF WHICH
   0 ARE SEVERE DISCONTINUITY ITERATIONS AND  1 ARE EQUILIBRIUM ITERATIONS.

 TIME INCREMENT COMPLETED   1.00    ,  FRACTION OF STEP COMPLETED  0.420    
 STEP TIME COMPLETED        42.0    ,  TOTAL TIME COMPLETED         42.0    


  INCREMENT    43 STARTS. ATTEMPT NUMBER  1, TIME INCREMENT   1.00    
 
	UNSYMMETRIC NEW DIRECT SPARSE SOLVER RUNNING ON
 	1 HOST x 1 MPI RANK PER HOST x 1 THREAD PER RANK
        NUMBER OF EQUATIONS:  32
        NUMBER OF RHS:        1
        NUMBER OF FLOPS:      2.189e+04
        SOLVER ELAPSED TIME:  0ms

               CONVERGENCE CHECKS FOR EQUILIBRIUM ITERATION     1


 AVERAGE FORCE                       0.00       TIME AVG. FORCE       1.000E-02
 ALL FORCE     RESIDUALS ARE ZERO
 ALL DISP.    INCREMENTS ARE ZERO
 ALL CORRECTION TO DISP.    ARE ZERO
          THERE IS ZERO FORCE     EVERYWHERE

 AVERAGE HEAT FLUX                  1.906E-04   TIME AVG. HEAT FLUX   6.206E-04
 LARGEST RESIDUAL HEAT FLUX        -5.235E-20   AT NODE          8   DOF 11
   INSTANCE: CUBE_ASSEMBLY                                                                   
 LARGEST INCREMENT OF TEMP.         0.483       AT NODE          8   DOF 11
   INSTANCE: CUBE_ASSEMBLY                                                                   
 LARGEST CORRECTION TO TEMP.       -3.054E-03   AT NODE          4   DOF 11
   INSTANCE: CUBE_ASSEMBLY                                                                   
          THE HEAT FLUX EQUILIBRIUM RESPONSE WAS LINEAR IN THIS INCREMENT

 MAXIMUM NON-PRESCRIBED INCREMENT IN TEMPERATURE IS   0.483    

 ITERATION SUMMARY FOR THE INCREMENT:   1 TOTAL ITERATIONS, OF WHICH
   0 ARE SEVERE DISCONTINUITY ITERATIONS AND  1 ARE EQUILIBRIUM ITERATIONS.

 TIME INCREMENT COMPLETED   1.00    ,  FRACTION OF STEP COMPLETED  0.430    
 STEP TIME COMPLETED        43.0    ,  TOTAL TIME COMPLETED         43.0    


  INCREMENT    44 STARTS. ATTEMPT NUMBER  1, TIME INCREMENT   1.00    
 
	UNSYMMETRIC NEW DIRECT SPARSE SOLVER RUNNING ON
 	1 HOST x 1 MPI RANK PER HOST x 1 THREAD PER RANK
        NUMBER OF EQUATIONS:  32
        NUMBER OF RHS:        1
        NUMBER OF FLOPS:      2.189e+04
        SOLVER ELAPSED TIME:  1ms

               CONVERGENCE CHECKS FOR EQUILIBRIUM ITERATION     1


 AVERAGE FORCE                       0.00       TIME AVG. FORCE       1.000E-02
 ALL FORCE     RESIDUALS ARE ZERO
 ALL DISP.    INCREMENTS ARE ZERO
 ALL CORRECTION TO DISP.    ARE ZERO
          THERE IS ZERO FORCE     EVERYWHERE

 AVERAGE HEAT FLUX                  1.894E-04   TIME AVG. HEAT FLUX   6.108E-04
 LARGEST RESIDUAL HEAT FLUX         4.624E-20   AT NODE          4   DOF 11
   INSTANCE: CUBE_ASSEMBLY                                                                   
 LARGEST INCREMENT OF TEMP.         0.479       AT NODE          6   DOF 11
   INSTANCE: CUBE_ASSEMBLY                                                                   
 LARGEST CORRECTION TO TEMP.       -3.035E-03   AT NODE          8   DOF 11
   INSTANCE: CUBE_ASSEMBLY                                                                   
          THE HEAT FLUX EQUILIBRIUM RESPONSE WAS LINEAR IN THIS INCREMENT

 MAXIMUM NON-PRESCRIBED INCREMENT IN TEMPERATURE IS   0.479    

 ITERATION SUMMARY FOR THE INCREMENT:   1 TOTAL ITERATIONS, OF WHICH
   0 ARE SEVERE DISCONTINUITY ITERATIONS AND  1 ARE EQUILIBRIUM ITERATIONS.

 TIME INCREMENT COMPLETED   1.00    ,  FRACTION OF STEP COMPLETED  0.440    
 STEP TIME COMPLETED        44.0    ,  TOTAL TIME COMPLETED         44.0    


  INCREMENT    45 STARTS. ATTEMPT NUMBER  1, TIME INCREMENT   1.00    
 
	UNSYMMETRIC NEW DIRECT SPARSE SOLVER RUNNING ON
 	1 HOST x 1 MPI RANK PER HOST x 1 THREAD PER RANK
        NUMBER OF EQUATIONS:  32
        NUMBER OF RHS:        1
        NUMBER OF FLOPS:      2.189e+04
        SOLVER ELAPSED TIME:  1ms

               CONVERGENCE CHECKS FOR EQUILIBRIUM ITERATION     1


 AVERAGE FORCE                       0.00       TIME AVG. FORCE       1.000E-02
 ALL FORCE     RESIDUALS ARE ZERO
 ALL DISP.    INCREMENTS ARE ZERO
 ALL CORRECTION TO DISP.    ARE ZERO
          THERE IS ZERO FORCE     EVERYWHERE

 AVERAGE HEAT FLUX                  1.882E-04   TIME AVG. HEAT FLUX   6.014E-04
[...]
 LARGEST CORRECTION TO TEMP.       -2.285E-03   AT NODE          6   DOF 11
   INSTANCE: CUBE_ASSEMBLY                                                                   
          THE HEAT FLUX EQUILIBRIUM RESPONSE WAS LINEAR IN THIS INCREMENT

 MAXIMUM NON-PRESCRIBED INCREMENT IN TEMPERATURE IS   0.361    

 ITERATION SUMMARY FOR THE INCREMENT:   1 TOTAL ITERATIONS, OF WHICH
   0 ARE SEVERE DISCONTINUITY ITERATIONS AND  1 ARE EQUILIBRIUM ITERATIONS.

 TIME INCREMENT COMPLETED   1.00    ,  FRACTION OF STEP COMPLETED  0.890    
 STEP TIME COMPLETED        89.0    ,  TOTAL TIME COMPLETED         89.0    


  INCREMENT    90 STARTS. ATTEMPT NUMBER  1, TIME INCREMENT   1.00    
 
	UNSYMMETRIC NEW DIRECT SPARSE SOLVER RUNNING ON
 	1 HOST x 1 MPI RANK PER HOST x 1 THREAD PER RANK
        NUMBER OF EQUATIONS:  32
        NUMBER OF RHS:        1
        NUMBER OF FLOPS:      2.189e+04
        SOLVER ELAPSED TIME:  1ms

               CONVERGENCE CHECKS FOR EQUILIBRIUM ITERATION     1


 AVERAGE FORCE                       0.00       TIME AVG. FORCE       1.000E-02
 ALL FORCE     RESIDUALS ARE ZERO
 ALL DISP.    INCREMENTS ARE ZERO
 ALL CORRECTION TO DISP.    ARE ZERO
          THERE IS ZERO FORCE     EVERYWHERE

 AVERAGE HEAT FLUX                  1.417E-04   TIME AVG. HEAT FLUX   3.824E-04
 LARGEST RESIDUAL HEAT FLUX        -4.929E-20   AT NODE          6   DOF 11
   INSTANCE: CUBE_ASSEMBLY                                                                   
 LARGEST INCREMENT OF TEMP.         0.359       AT NODE          6   DOF 11
   INSTANCE: CUBE_ASSEMBLY                                                                   
 LARGEST CORRECTION TO TEMP.       -2.270E-03   AT NODE          4   DOF 11
   INSTANCE: CUBE_ASSEMBLY                                                                   
          THE HEAT FLUX EQUILIBRIUM RESPONSE WAS LINEAR IN THIS INCREMENT

 MAXIMUM NON-PRESCRIBED INCREMENT IN TEMPERATURE IS   0.359    

 ITERATION SUMMARY FOR THE INCREMENT:   1 TOTAL ITERATIONS, OF WHICH
   0 ARE SEVERE DISCONTINUITY ITERATIONS AND  1 ARE EQUILIBRIUM ITERATIONS.

 TIME INCREMENT COMPLETED   1.00    ,  FRACTION OF STEP COMPLETED  0.900    
 STEP TIME COMPLETED        90.0    ,  TOTAL TIME COMPLETED         90.0    


  INCREMENT    91 STARTS. ATTEMPT NUMBER  1, TIME INCREMENT   1.00    
 
	UNSYMMETRIC NEW DIRECT SPARSE SOLVER RUNNING ON
 	1 HOST x 1 MPI RANK PER HOST x 1 THREAD PER RANK
        NUMBER OF EQUATIONS:  32
        NUMBER OF RHS:        1
        NUMBER OF FLOPS:      2.189e+04
        SOLVER ELAPSED TIME:  1ms

               CONVERGENCE CHECKS FOR EQUILIBRIUM ITERATION     1


 AVERAGE FORCE                       0.00       TIME AVG. FORCE       1.000E-02
 ALL FORCE     RESIDUALS ARE ZERO
 ALL DISP.    INCREMENTS ARE ZERO
 ALL CORRECTION TO DISP.    ARE ZERO
          THERE IS ZERO FORCE     EVERYWHERE

 AVERAGE HEAT FLUX                  1.408E-04   TIME AVG. HEAT FLUX   3.797E-04
 LARGEST RESIDUAL HEAT FLUX        -6.001E-20   AT NODE          6   DOF 11
   INSTANCE: CUBE_ASSEMBLY                                                                   
 LARGEST INCREMENT OF TEMP.         0.356       AT NODE          6   DOF 11
   INSTANCE: CUBE_ASSEMBLY                                                                   
 LARGEST CORRECTION TO TEMP.       -2.256E-03   AT NODE          2   DOF 11
   INSTANCE: CUBE_ASSEMBLY                                                                   
          THE HEAT FLUX EQUILIBRIUM RESPONSE WAS LINEAR IN THIS INCREMENT

 MAXIMUM NON-PRESCRIBED INCREMENT IN TEMPERATURE IS   0.356    

 ITERATION SUMMARY FOR THE INCREMENT:   1 TOTAL ITERATIONS, OF WHICH
   0 ARE SEVERE DISCONTINUITY ITERATIONS AND  1 ARE EQUILIBRIUM ITERATIONS.

 TIME INCREMENT COMPLETED   1.00    ,  FRACTION OF STEP COMPLETED  0.910    
 STEP TIME COMPLETED        91.0    ,  TOTAL TIME COMPLETED         91.0    


  INCREMENT    92 STARTS. ATTEMPT NUMBER  1, TIME INCREMENT   1.00    
 
	UNSYMMETRIC NEW DIRECT SPARSE SOLVER RUNNING ON
 	1 HOST x 1 MPI RANK PER HOST x 1 THREAD PER RANK
        NUMBER OF EQUATIONS:  32
        NUMBER OF RHS:        1
        NUMBER OF FLOPS:      2.189e+04
        SOLVER ELAPSED TIME:  1ms

               CONVERGENCE CHECKS FOR EQUILIBRIUM ITERATION     1


 AVERAGE FORCE                       0.00       TIME AVG. FORCE       1.000E-02
 ALL FORCE     RESIDUALS ARE ZERO
 ALL DISP.    INCREMENTS ARE ZERO
 ALL CORRECTION TO DISP.    ARE ZERO
          THERE IS ZERO FORCE     EVERYWHERE

 AVERAGE HEAT FLUX                  1.399E-04   TIME AVG. HEAT FLUX   3.771E-04
 LARGEST RESIDUAL HEAT FLUX        -4.454E-20   AT NODE          2   DOF 11
   INSTANCE: CUBE_ASSEMBLY                                                                   
 LARGEST INCREMENT OF TEMP.         0.354       AT NODE          8   DOF 11
   INSTANCE: CUBE_ASSEMBLY                                                                   
 LARGEST CORRECTION TO TEMP.       -2.242E-03   AT NODE          6   DOF 11
   INSTANCE: CUBE_ASSEMBLY                                                                   
          THE HEAT FLUX EQUILIBRIUM RESPONSE WAS LINEAR IN THIS INCREMENT

 MAXIMUM NON-PRESCRIBED INCREMENT IN TEMPERATURE IS   0.354    

 ITERATION SUMMARY FOR THE INCREMENT:   1 TOTAL ITERATIONS, OF WHICH
   0 ARE SEVERE DISCONTINUITY ITERATIONS AND  1 ARE EQUILIBRIUM ITERATIONS.

 TIME INCREMENT COMPLETED   1.00    ,  FRACTION OF STEP COMPLETED  0.920    
 STEP TIME COMPLETED        92.0    ,  TOTAL TIME COMPLETED         92.0    


  INCREMENT    93 STARTS. ATTEMPT NUMBER  1, TIME INCREMENT   1.00    
 
	UNSYMMETRIC NEW DIRECT SPARSE SOLVER RUNNING ON
 	1 HOST x 1 MPI RANK PER HOST x 1 THREAD PER RANK
        NUMBER OF EQUATIONS:  32
        NUMBER OF RHS:        1
        NUMBER OF FLOPS:      2.189e+04
        SOLVER ELAPSED TIME:  1ms

               CONVERGENCE CHECKS FOR EQUILIBRIUM ITERATION     1


 AVERAGE FORCE                       0.00       TIME AVG. FORCE       1.000E-02
 ALL FORCE     RESIDUALS ARE ZERO
 ALL DISP.    INCREMENTS ARE ZERO
 ALL CORRECTION TO DISP.    ARE ZERO
          THERE IS ZERO FORCE     EVERYWHERE

 AVERAGE HEAT FLUX                  1.390E-04   TIME AVG. HEAT FLUX   3.745E-04
 LARGEST RESIDUAL HEAT FLUX         3.338E-20   AT NODE          2   DOF 11
   INSTANCE: CUBE_ASSEMBLY                                                                   
 LARGEST INCREMENT OF TEMP.         0.352       AT NODE          4   DOF 11
   INSTANCE: CUBE_ASSEMBLY                                                                   
 LARGEST CORRECTION TO TEMP.       -2.228E-03   AT NODE          2   DOF 11
   INSTANCE: CUBE_ASSEMBLY                                                                   
          THE HEAT FLUX EQUILIBRIUM RESPONSE WAS LINEAR IN THIS INCREMENT

 MAXIMUM NON-PRESCRIBED INCREMENT IN TEMPERATURE IS   0.352    

 ITERATION SUMMARY FOR THE INCREMENT:   1 TOTAL ITERATIONS, OF WHICH
   0 ARE SEVERE DISCONTINUITY ITERATIONS AND  1 ARE EQUILIBRIUM ITERATIONS.

 TIME INCREMENT COMPLETED   1.00    ,  FRACTION OF STEP COMPLETED  0.930    
 STEP TIME COMPLETED        93.0    ,  TOTAL TIME COMPLETED         93.0    


  INCREMENT    94 STARTS. ATTEMPT NUMBER  1, TIME INCREMENT   1.00    
 
	UNSYMMETRIC NEW DIRECT SPARSE SOLVER RUNNING ON
 	1 HOST x 1 MPI RANK PER HOST x 1 THREAD PER RANK
        NUMBER OF EQUATIONS:  32
        NUMBER OF RHS:        1
        NUMBER OF FLOPS:      2.189e+04
        SOLVER ELAPSED TIME:  1ms

               CONVERGENCE CHECKS FOR EQUILIBRIUM ITERATION     1


 AVERAGE FORCE                       0.00       TIME AVG. FORCE       1.000E-02
 ALL FORCE     RESIDUALS ARE ZERO
 ALL DISP.    INCREMENTS ARE ZERO
 ALL CORRECTION TO DISP.    ARE ZERO
          THERE IS ZERO FORCE     EVERYWHERE

 AVERAGE HEAT FLUX                  1.382E-04   TIME AVG. HEAT FLUX   3.720E-04
 LARGEST RESIDUAL HEAT FLUX         4.694E-20   AT NODE          2   DOF 11
   INSTANCE: CUBE_ASSEMBLY                                                                   
 LARGEST INCREMENT OF TEMP.         0.350       AT NODE          6   DOF 11
   INSTANCE: CUBE_ASSEMBLY                                                                   
 LARGEST CORRECTION TO TEMP.       -2.214E-03   AT NODE          4   DOF 11
   INSTANCE: CUBE_ASSEMBLY                                                                   
          THE HEAT FLUX EQUILIBRIUM RESPONSE WAS LINEAR IN THIS INCREMENT

 MAXIMUM NON-PRESCRIBED INCREMENT IN TEMPERATURE IS   0.350    

 ITERATION SUMMARY FOR THE INCREMENT:   1 TOTAL ITERATIONS, OF WHICH
   0 ARE SEVERE DISCONTINUITY ITERATIONS AND  1 ARE EQUILIBRIUM ITERATIONS.

 TIME INCREMENT COMPLETED   1.00    ,  FRACTION OF STEP COMPLETED  0.940    
 STEP TIME COMPLETED        94.0    ,  TOTAL TIME COMPLETED         94.0    


  INCREMENT    95 STARTS. ATTEMPT NUMBER  1, TIME INCREMENT   1.00    
 
	UNSYMMETRIC NEW DIRECT SPARSE SOLVER RUNNING ON
 	1 HOST x 1 MPI RANK PER HOST x 1 THREAD PER RANK
        NUMBER OF EQUATIONS:  32
        NUMBER OF RHS:        1
        NUMBER OF FLOPS:      2.189e+04
        SOLVER ELAPSED TIME:  1ms

               CONVERGENCE CHECKS FOR EQUILIBRIUM ITERATION     1


 AVERAGE FORCE                       0.00       TIME AVG. FORCE       1.000E-02
 ALL FORCE     RESIDUALS ARE ZERO
 ALL DISP.    INCREMENTS ARE ZERO
 ALL CORRECTION TO DISP.    ARE ZERO
          THERE IS ZERO FORCE     EVERYWHERE

 AVERAGE HEAT FLUX                  1.373E-04   TIME AVG. HEAT FLUX   3.696E-04
 LARGEST RESIDUAL HEAT FLUX        -3.965E-20   AT NODE          4   DOF 11
   INSTANCE: CUBE_ASSEMBLY                                                                   
 LARGEST INCREMENT OF TEMP.         0.348       AT NODE          4   DOF 11
   INSTANCE: CUBE_ASSEMBLY                                                                   
 LARGEST CORRECTION TO TEMP.       -2.200E-03   AT NODE          6   DOF 11
   INSTANCE: CUBE_ASSEMBLY                                                                   
          THE HEAT FLUX EQUILIBRIUM RESPONSE WAS LINEAR IN THIS INCREMENT

 MAXIMUM NON-PRESCRIBED INCREMENT IN TEMPERATURE IS   0.348    

 ITERATION SUMMARY FOR THE INCREMENT:   1 TOTAL ITERATIONS, OF WHICH
   0 ARE SEVERE DISCONTINUITY ITERATIONS AND  1 ARE EQUILIBRIUM ITERATIONS.

 TIME INCREMENT COMPLETED   1.00    ,  FRACTION OF STEP COMPLETED  0.950    
 STEP TIME COMPLETED        95.0    ,  TOTAL TIME COMPLETED         95.0    


  INCREMENT    96 STARTS. ATTEMPT NUMBER  1, TIME INCREMENT   1.00    
 
	UNSYMMETRIC NEW DIRECT SPARSE SOLVER RUNNING ON
 	1 HOST x 1 MPI RANK PER HOST x 1 THREAD PER RANK
        NUMBER OF EQUATIONS:  32
        NUMBER OF RHS:        1
        NUMBER OF FLOPS:      2.189e+04
        SOLVER ELAPSED TIME:  1ms

               CONVERGENCE CHECKS FOR EQUILIBRIUM ITERATION     1


 AVERAGE FORCE                       0.00       TIME AVG. FORCE       1.000E-02
 ALL FORCE     RESIDUALS ARE ZERO
 ALL DISP.    INCREMENTS ARE ZERO
 ALL CORRECTION TO DISP.    ARE ZERO
          THERE IS ZERO FORCE     EVERYWHERE

 AVERAGE HEAT FLUX                  1.364E-04   TIME AVG. HEAT FLUX   3.671E-04
 LARGEST RESIDUAL HEAT FLUX        -2.977E-20   AT NODE          8   DOF 11
   INSTANCE: CUBE_ASSEMBLY                                                                   
 LARGEST INCREMENT OF TEMP.         0.345       AT NODE          4   DOF 11
   INSTANCE: CUBE_ASSEMBLY                                                                   
 LARGEST CORRECTION TO TEMP.       -2.186E-03   AT NODE          6   DOF 11
   INSTANCE: CUBE_ASSEMBLY                                                                   
          THE HEAT FLUX EQUILIBRIUM RESPONSE WAS LINEAR IN THIS INCREMENT

 MAXIMUM NON-PRESCRIBED INCREMENT IN TEMPERATURE IS   0.345    

 ITERATION SUMMARY FOR THE INCREMENT:   1 TOTAL ITERATIONS, OF WHICH
   0 ARE SEVERE DISCONTINUITY ITERATIONS AND  1 ARE EQUILIBRIUM ITERATIONS.

 TIME INCREMENT COMPLETED   1.00    ,  FRACTION OF STEP COMPLETED  0.960    
 STEP TIME COMPLETED        96.0    ,  TOTAL TIME COMPLETED         96.0    


  INCREMENT    97 STARTS. ATTEMPT NUMBER  1, TIME INCREMENT   1.00    
 
	UNSYMMETRIC NEW DIRECT SPARSE SOLVER RUNNING ON
 	1 HOST x 1 MPI RANK PER HOST x 1 THREAD PER RANK
        NUMBER OF EQUATIONS:  32
        NUMBER OF RHS:        1
        NUMBER OF FLOPS:      2.189e+04
        SOLVER ELAPSED TIME:  0ms

               CONVERGENCE CHECKS FOR EQUILIBRIUM ITERATION     1


 AVERAGE FORCE                       0.00       TIME AVG. FORCE       1.000E-02
 ALL FORCE     RESIDUALS ARE ZERO
 ALL DISP.    INCREMENTS ARE ZERO
 ALL CORRECTION TO DISP.    ARE ZERO
          THERE IS ZERO FORCE     EVERYWHERE

 AVERAGE HEAT FLUX                  1.356E-04   TIME AVG. HEAT FLUX   3.647E-04
 LARGEST RESIDUAL HEAT FLUX         2.582E-20   AT NODE          4   DOF 11
   INSTANCE: CUBE_ASSEMBLY                                                                   
 LARGEST INCREMENT OF TEMP.         0.343       AT NODE          6   DOF 11
   INSTANCE: CUBE_ASSEMBLY                                                                   
 LARGEST CORRECTION TO TEMP.       -2.172E-03   AT NODE          4   DOF 11
   INSTANCE: CUBE_ASSEMBLY                                                                   
          THE HEAT FLUX EQUILIBRIUM RESPONSE WAS LINEAR IN THIS INCREMENT

 MAXIMUM NON-PRESCRIBED INCREMENT IN TEMPERATURE IS   0.343    

 ITERATION SUMMARY FOR THE INCREMENT:   1 TOTAL ITERATIONS, OF WHICH
   0 ARE SEVERE DISCONTINUITY ITERATIONS AND  1 ARE EQUILIBRIUM ITERATIONS.

 TIME INCREMENT COMPLETED   1.00    ,  FRACTION OF STEP COMPLETED  0.970    
 STEP TIME COMPLETED        97.0    ,  TOTAL TIME COMPLETED         97.0    


  INCREMENT    98 STARTS. ATTEMPT NUMBER  1, TIME INCREMENT   1.00    
 
	UNSYMMETRIC NEW DIRECT SPARSE SOLVER RUNNING ON
 	1 HOST x 1 MPI RANK PER HOST x 1 THREAD PER RANK
        NUMBER OF EQUATIONS:  32
        NUMBER OF RHS:        1
        NUMBER OF FLOPS:      2.189e+04
        SOLVER ELAPSED TIME:  1ms

               CONVERGENCE CHECKS FOR EQUILIBRIUM ITERATION     1


 AVERAGE FORCE                       0.00       TIME AVG. FORCE       1.000E-02
 ALL FORCE     RESIDUALS ARE ZERO
 ALL DISP.    INCREMENTS ARE ZERO
 ALL CORRECTION TO DISP.    ARE ZERO
          THERE IS ZERO FORCE     EVERYWHERE

 AVERAGE HEAT FLUX                  1.347E-04   TIME AVG. HEAT FLUX   3.624E-04
 LARGEST RESIDUAL HEAT FLUX         5.437E-20   AT NODE          8   DOF 11
   INSTANCE: CUBE_ASSEMBLY                                                                   
 LARGEST INCREMENT OF TEMP.         0.341       AT NODE          4   DOF 11
   INSTANCE: CUBE_ASSEMBLY                                                                   
 LARGEST CORRECTION TO TEMP.       -2.159E-03   AT NODE          6   DOF 11
   INSTANCE: CUBE_ASSEMBLY                                                                   
          THE HEAT FLUX EQUILIBRIUM RESPONSE WAS LINEAR IN THIS INCREMENT

 MAXIMUM NON-PRESCRIBED INCREMENT IN TEMPERATURE IS   0.341    

 ITERATION SUMMARY FOR THE INCREMENT:   1 TOTAL ITERATIONS, OF WHICH
   0 ARE SEVERE DISCONTINUITY ITERATIONS AND  1 ARE EQUILIBRIUM ITERATIONS.

 TIME INCREMENT COMPLETED   1.00    ,  FRACTION OF STEP COMPLETED  0.980    
 STEP TIME COMPLETED        98.0    ,  TOTAL TIME COMPLETED         98.0    


  INCREMENT    99 STARTS. ATTEMPT NUMBER  1, TIME INCREMENT   1.00    
 
	UNSYMMETRIC NEW DIRECT SPARSE SOLVER RUNNING ON
 	1 HOST x 1 MPI RANK PER HOST x 1 THREAD PER RANK
        NUMBER OF EQUATIONS:  32
        NUMBER OF RHS:        1
        NUMBER OF FLOPS:      2.189e+04
        SOLVER ELAPSED TIME:  1ms

               CONVERGENCE CHECKS FOR EQUILIBRIUM ITERATION     1


 AVERAGE FORCE                       0.00       TIME AVG. FORCE       1.000E-02
 ALL FORCE     RESIDUALS ARE ZERO
 ALL DISP.    INCREMENTS ARE ZERO
 ALL CORRECTION TO DISP.    ARE ZERO
          THERE IS ZERO FORCE     EVERYWHERE

 AVERAGE HEAT FLUX                  1.339E-04   TIME AVG. HEAT FLUX   3.601E-04
 LARGEST RESIDUAL HEAT FLUX         5.032E-20   AT NODE          2   DOF 11
   INSTANCE: CUBE_ASSEMBLY                                                                   
 LARGEST INCREMENT OF TEMP.         0.339       AT NODE          8   DOF 11
   INSTANCE: CUBE_ASSEMBLY                                                                   
 LARGEST CORRECTION TO TEMP.       -2.145E-03   AT NODE          2   DOF 11
   INSTANCE: CUBE_ASSEMBLY                                                                   
          THE HEAT FLUX EQUILIBRIUM RESPONSE WAS LINEAR IN THIS INCREMENT

 MAXIMUM NON-PRESCRIBED INCREMENT IN TEMPERATURE IS   0.339    

 ITERATION SUMMARY FOR THE INCREMENT:   1 TOTAL ITERATIONS, OF WHICH
   0 ARE SEVERE DISCONTINUITY ITERATIONS AND  1 ARE EQUILIBRIUM ITERATIONS.

 TIME INCREMENT COMPLETED   1.00    ,  FRACTION OF STEP COMPLETED  0.990    
 STEP TIME COMPLETED        99.0    ,  TOTAL TIME COMPLETED         99.0    


  INCREMENT   100 STARTS. ATTEMPT NUMBER  1, TIME INCREMENT   1.00    
 
	UNSYMMETRIC NEW DIRECT SPARSE SOLVER RUNNING ON
 	1 HOST x 1 MPI RANK PER HOST x 1 THREAD PER RANK
        NUMBER OF EQUATIONS:  32
        NUMBER OF RHS:        1
        NUMBER OF FLOPS:      2.189e+04
        SOLVER ELAPSED TIME:  1ms

               CONVERGENCE CHECKS FOR EQUILIBRIUM ITERATION     1


 AVERAGE FORCE                       0.00       TIME AVG. FORCE       1.000E-02
 ALL FORCE     RESIDUALS ARE ZERO
 ALL DISP.    INCREMENTS ARE ZERO
 ALL CORRECTION TO DISP.    ARE ZERO
          THERE IS ZERO FORCE     EVERYWHERE

 AVERAGE HEAT FLUX                  1.330E-04   TIME AVG. HEAT FLUX   3.578E-04
 LARGEST RESIDUAL HEAT FLUX        -2.497E-20   AT NODE          2   DOF 11
   INSTANCE: CUBE_ASSEMBLY                                                                   
 LARGEST INCREMENT OF TEMP.         0.337       AT NODE          4   DOF 11
   INSTANCE: CUBE_ASSEMBLY                                                                   
 LARGEST CORRECTION TO TEMP.       -2.131E-03   AT NODE          8   DOF 11
   INSTANCE: CUBE_ASSEMBLY                                                                   
          THE HEAT FLUX EQUILIBRIUM RESPONSE WAS LINEAR IN THIS INCREMENT

 MAXIMUM NON-PRESCRIBED INCREMENT IN TEMPERATURE IS   0.337    

 ITERATION SUMMARY FOR THE INCREMENT:   1 TOTAL ITERATIONS, OF WHICH
   0 ARE SEVERE DISCONTINUITY ITERATIONS AND  1 ARE EQUILIBRIUM ITERATIONS.

 TIME INCREMENT COMPLETED   1.00    ,  FRACTION OF STEP COMPLETED   1.00    
 STEP TIME COMPLETED        100.    ,  TOTAL TIME COMPLETED         100.    


          THE ANALYSIS HAS BEEN COMPLETED



     ANALYSIS SUMMARY:
     TOTAL OF        100  INCREMENTS
                       0  CUTBACKS IN AUTOMATIC INCREMENTATION
                     100  ITERATIONS INCLUDING CONTACT ITERATIONS IF PRESENT
                     100  PASSES THROUGH THE EQUATION SOLVER OF WHICH 
                     100  INVOLVE MATRIX DECOMPOSITION, INCLUDING
                       0  DECOMPOSITION(S) OF THE MASS MATRIX
                       1  REORDERING OF EQUATIONS TO MINIMIZE WAVEFRONT
                       0  ADDITIONAL RESIDUAL EVALUATIONS FOR LINE SEARCHES
                       0  ADDITIONAL OPERATOR EVALUATIONS FOR LINE SEARCHES
                       1  WARNING MESSAGES DURING USER INPUT PROCESSING
                       0  WARNING MESSAGES DURING ANALYSIS
                       0  ANALYSIS WARNINGS ARE NUMERICAL PROBLEM MESSAGES
                       0  ANALYSIS WARNINGS ARE NEGATIVE EIGENVALUE MESSAGES
                       0  ERROR MESSAGES



     JOB TIME SUMMARY
       USER TIME (SEC)      =     0.80    
       SYSTEM TIME (SEC)    =      1.0    
       TOTAL CPU TIME (SEC) =      1.8    
       WALLCLOCK TIME (SEC) =            3
       MEMORY PEAK (GB)     =            0
