*Heading
** Job name: solver_cube_C3D8_plastic_nlgeom_on_nosymm Model name: solver_cube_C3D8_plastic_nlgeom_on_nosymm
** Generated by: Abaqus/CAE 2023.HF4
*Preprint, echo=NO, model=NO, history=NO, contact=NO
**
** PARTS
**
*Part, name=cube
*Node
      1, 0.00100000005, 0.00100000005, 0.00100000005
      2, 0.00100000005,           0., 0.00100000005
      3, 0.00100000005, 0.00100000005,           0.
      4, 0.00100000005,           0.,           0.
      5, 4.74974504e-11, 0.00100000005, 0.00100000005
      6, 4.74974504e-11,           0., 0.00100000005
      7, 4.74974504e-11, 0.00100000005,           0.
      8, 4.74974504e-11,           0.,           0.
*Element, type=C3D8
1, 3, 4, 2, 1, 7, 8, 6, 5
*Nset, nset=Set-4, generate
 1,  8,  1
*Elset, elset=Set-4
 1,
** Section: Section-1
*Solid Section, elset=Set-4, material=plastic
,
*End Part
**  
**
** ASSEMBLY
**
*Assembly, name=Assembly
**  
*Instance, name=cube_assembly, part=cube
     -0.0005,      -0.0005,      -0.0005
*End Instance
**  
*Nset, nset=top_side, instance=cube_assembly, generate
 1,  7,  2
*Elset, elset=top_side, instance=cube_assembly
 1,
*Elset, elset=whole_cube_element, instance=cube_assembly
 1,
*Nset, nset=xsymm_side, instance=cube_assembly, generate
 5,  8,  1
*Elset, elset=xsymm_side, instance=cube_assembly
 1,
*Nset, nset=ysymm_side, instance=cube_assembly, generate
 2,  8,  2
*Elset, elset=ysymm_side, instance=cube_assembly
 1,
*Nset, nset=zsymm_side, instance=cube_assembly
 3, 4, 7, 8
*Elset, elset=zsymm_side, instance=cube_assembly
 1,
*End Assembly
*Amplitude, name=loading
             0.,              0.,            100.,              1.
** 
** MATERIALS
** 
*Material, name=plastic
*Elastic
 2.1e+11, 0.3
*Plastic
 8.69678e+08,     0.
 8.71527e+08, 0.0002
 8.73375e+08, 0.0004
 8.75224e+08, 0.0006
 8.77073e+08, 0.0008
 8.78921e+08,  0.001
 8.88164e+08,  0.002
 8.97407e+08,  0.003
  9.0665e+08,  0.004
 9.15893e+08,  0.005
 9.25136e+08,  0.006
 9.34379e+08,  0.007
 9.43622e+08,  0.008
 9.52085e+08,  0.009
 9.59845e+08,   0.01
 1.01043e+09,   0.02
 1.03393e+09,   0.03
 1.04621e+09,   0.04
 1.05365e+09,   0.05
 1.05889e+09,   0.06
** ... 80 like lines cut
** ----------------------------------------------------------------
** 
** STEP: step1_tensile
** 
*Step, name=step1_tensile, nlgeom=NO, amplitude=STEP, inc=1000000
*Static
1., 100., 1e-07, 1.
** 
** BOUNDARY CONDITIONS
** 
** Name: top_side_disp Type: Displacement/Rotation
*Boundary, amplitude=loading
top_side, 2, 2, 0.001
** Name: ysymm Type: Symmetry/Antisymmetry/Encastre
*Boundary
ysymm_side, YSYMM
** 
** OUTPUT REQUESTS
** 
*Restart, write, frequency=0
** 
** FIELD OUTPUT: F-Output-1
** 
*Output, field, number interval=100
*Node Output
RF, U
*Element Output, directions=YES
E, LODE, MISES, S, TRIAX
*Output, history, frequency=0
*End Step
