1

   Abaqus 2023.HF4                                  Date 14-Oct-2024   Time 14:24:14
   For use by AALTO UNIVERSITY under license from Dassault Systemes or its subsidiary.

                                                                                 
                                                                                 
 STEP    1     INCREMENT     1     STEP TIME    0.00    


                        S T E P       1     S T A T I C   A N A L Y S I S


                                                                                          

     AUTOMATIC TIME CONTROL WITH -
          A SUGGESTED INITIAL TIME INCREMENT OF                 1.00    
          AND A TOTAL TIME PERIOD OF                            100.    
          THE MINIMUM TIME INCREMENT ALLOWED IS                1.000E-07
          THE MAXIMUM TIME INCREMENT ALLOWED IS                 1.00    

     LINEAR EQUATION SOLVER TYPE         DIRECT SPARSE

 CONVERGENCE TOLERANCE PARAMETERS FOR FORCE    
     CRITERION FOR RESIDUAL FORCE     FOR A NONLINEAR PROBLEM          5.000E-03
     CRITERION FOR DISP.    CORRECTION IN A NONLINEAR PROBLEM          1.000E-02
     INITIAL VALUE OF TIME AVERAGE FORCE                               1.000E-02
     AVERAGE FORCE     IS TIME AVERAGE FORCE    
     ALTERNATE CRIT. FOR RESIDUAL FORCE     FOR A NONLINEAR PROBLEM    2.000E-02
     CRITERION FOR ZERO FORCE     RELATIVE TO TIME AVRG. FORCE         1.000E-05
     CRITERION FOR RESIDUAL FORCE     WHEN THERE IS ZERO FLUX          1.000E-05
     CRITERION FOR DISP.    CORRECTION WHEN THERE IS ZERO FLUX         1.000E-03
     CRITERION FOR RESIDUAL FORCE     FOR A LINEAR INCREMENT           1.000E-08
     FIELD CONVERSION RATIO                                             1.00    
     CRITERION FOR ZERO FORCE     REL. TO TIME AVRG. MAX. FORCE        1.000E-05
     CRITERION FOR ZERO DISP.    RELATIVE TO CHARACTERISTIC LENGTH     1.000E-08

     VOLUMETRIC STRAIN COMPATIBILITY TOLERANCE FOR HYBRID SOLIDS       1.000E-05
     AXIAL STRAIN COMPATIBILITY TOLERANCE FOR HYBRID BEAMS             1.000E-05
     TRANS. SHEAR STRAIN COMPATIBILITY TOLERANCE FOR HYBRID BEAMS      1.000E-05
     SOFT CONTACT CONSTRAINT COMPATIBILITY TOLERANCE FOR P>P0          5.000E-03
     SOFT CONTACT CONSTRAINT COMPATIBILITY TOLERANCE FOR P=0.0         0.100    
     CONTACT FORCE ERROR TOLERANCE FOR CONVERT SDI=YES                 1.00    
     DISPLACEMENT COMPATIBILITY TOLERANCE FOR DCOUP ELEMENTS           1.000E-05
     ROTATION COMPATIBILITY TOLERANCE FOR DCOUP ELEMENTS               1.000E-05

 EQUILIBRIUM WILL BE CHECKED FOR SEVERE DISCONTINUITY ITERATIONS

 TIME INCREMENTATION CONTROL PARAMETERS:
     FIRST EQUILIBRIUM ITERATION FOR CONSECUTIVE DIVERGENCE CHECK              4
     EQUILIBRIUM ITERATION AT WHICH LOG. CONVERGENCE RATE CHECK BEGINS         8
     EQUILIBRIUM ITERATION AFTER WHICH ALTERNATE RESIDUAL IS USED              9
     MAXIMUM EQUILIBRIUM ITERATIONS ALLOWED                                   16
     EQUILIBRIUM ITERATION COUNT FOR CUT-BACK IN NEXT INCREMENT               10
     MAXIMUM EQUILIB. ITERS IN TWO INCREMENTS FOR TIME INCREMENT INCREASE      4
     MAXIMUM ITERATIONS FOR SEVERE DISCONTINUITIES                            50
     MAXIMUM ATTEMPTS ALLOWED IN AN INCREMENT                                  5
     MAXIMUM DISCON. ITERS IN TWO INCREMENTS FOR TIME INCREMENT INCREASE      50
     MAXIMUM CONTACT AUGMENTATIONS FOR *SURFACE BEHAVIOR,AUGMENTED LAGRANGE   50
     CUT-BACK FACTOR AFTER DIVERGENCE                                 0.2500    
     CUT-BACK FACTOR FOR TOO SLOW CONVERGENCE                         0.5000    
     CUT-BACK FACTOR AFTER TOO MANY EQUILIBRIUM ITERATIONS            0.7500    
     CUT-BACK FACTOR AFTER TOO MANY SEVERE DISCONTINUITY ITERATIONS   0.2500    
     CUT-BACK FACTOR AFTER PROBLEMS IN ELEMENT ASSEMBLY               0.2500    
     INCREASE FACTOR AFTER TWO INCREMENTS THAT CONVERGE QUICKLY        1.500    
     MAX. TIME INCREMENT INCREASE FACTOR ALLOWED                       1.500    
     MAX. TIME INCREMENT INCREASE FACTOR ALLOWED (DYNAMICS)            1.250    
     MAX. TIME INCREMENT INCREASE FACTOR ALLOWED (DIFFUSION)           2.000    
     MINIMUM TIME INCREMENT RATIO FOR EXTRAPOLATION TO OCCUR          0.1000    
     MAX. RATIO OF TIME INCREMENT TO STABILITY LIMIT                   1.000    
     FRACTION OF STABILITY LIMIT FOR NEW TIME INCREMENT               0.9500    
     TIME INCREMENT INCREASE FACTOR BEFORE A TIME POINT                1.000    
     GLOBAL STABILIZATION CONTROL IS NOT USED

          PRINT OF INCREMENT NUMBER, TIME, ETC., EVERY    1  INCREMENTS

     THE MAXIMUM NUMBER OF INCREMENTS IN THIS STEP IS                 1000000

          LARGE DISPLACEMENT THEORY WILL BE USED

     LINEAR EXTRAPOLATION WILL BE USED

     CHARACTERISTIC ELEMENT LENGTH     1.000E-03

     DETAILS REGARDING ACTUAL SOLUTION WAVEFRONT REQUESTED

     DETAILED OUTPUT OF DIAGNOSTICS TO DATABASE REQUESTED

     PRINT OF INCREMENT NUMBER, TIME, ETC., TO THE MESSAGE FILE EVERY     1  INCREMENTS

     COLLECTING MODEL CONSTRAINT INFORMATION FOR OVERCONSTRAINT CHECKS

     COLLECTING STEP CONSTRAINT INFORMATION FOR OVERCONSTRAINT CHECKS


  INCREMENT     1 STARTS. ATTEMPT NUMBER  1, TIME INCREMENT   1.00    
 
	SYMMETRIC NEW DIRECT SPARSE SOLVER RUNNING ON
 	1 HOST x 1 MPI RANK PER HOST x 1 THREAD PER RANK
        NUMBER OF EQUATIONS:  24
        NUMBER OF RHS:        1
        NUMBER OF FLOPS:      4.900e+03
        SOLVER ELAPSED TIME:  4ms

               CONVERGENCE CHECKS FOR EQUILIBRIUM ITERATION     1


 AVERAGE FORCE                       115.       TIME AVG. FORCE        115.    
 LARGEST SCALED RESIDUAL FORCE      -131.       AT NODE          1   DOF  1
   INSTANCE: CUBE_ASSEMBLY                                                                   
  CORRESPONDING RESIDUAL FORCE      -131.    
 LARGEST INCREMENT OF DISP.         1.000E-05   AT NODE          1   DOF  2
   INSTANCE: CUBE_ASSEMBLY                                                                   
 LARGEST CORRECTION TO DISP.        1.000E-05   AT NODE          1   DOF  2
   INSTANCE: CUBE_ASSEMBLY                                                                   
          FORCE     EQUILIBRIUM NOT ACHIEVED WITHIN TOLERANCE.
 
	SYMMETRIC NEW DIRECT SPARSE SOLVER RUNNING ON
 	1 HOST x 1 MPI RANK PER HOST x 1 THREAD PER RANK
        NUMBER OF EQUATIONS:  24
        NUMBER OF RHS:        1
        NUMBER OF FLOPS:      4.900e+03
        SOLVER ELAPSED TIME:  0ms

               CONVERGENCE CHECKS FOR EQUILIBRIUM ITERATION     2


 AVERAGE FORCE                       55.6       TIME AVG. FORCE        55.6    
 LARGEST SCALED RESIDUAL FORCE      -1.13       AT NODE          1   DOF  1
   INSTANCE: CUBE_ASSEMBLY                                                                   
  CORRESPONDING RESIDUAL FORCE      -1.13    
 LARGEST INCREMENT OF DISP.         1.000E-05   AT NODE          1   DOF  2
   INSTANCE: CUBE_ASSEMBLY                                                                   
 LARGEST CORRECTION TO DISP.       -2.764E-06   AT NODE          1   DOF  3
   INSTANCE: CUBE_ASSEMBLY                                                                   
          FORCE     EQUILIBRIUM NOT ACHIEVED WITHIN TOLERANCE.
 
	SYMMETRIC NEW DIRECT SPARSE SOLVER RUNNING ON
 	1 HOST x 1 MPI RANK PER HOST x 1 THREAD PER RANK
        NUMBER OF EQUATIONS:  24
        NUMBER OF RHS:        1
        NUMBER OF FLOPS:      4.900e+03
        SOLVER ELAPSED TIME:  0ms

               CONVERGENCE CHECKS FOR EQUILIBRIUM ITERATION     3


 AVERAGE FORCE                       55.2       TIME AVG. FORCE        55.2    
 LARGEST SCALED RESIDUAL FORCE      7.937E-03   AT NODE          1   DOF  1
   INSTANCE: CUBE_ASSEMBLY                                                                   
  CORRESPONDING RESIDUAL FORCE      7.937E-03
 LARGEST INCREMENT OF DISP.         1.000E-05   AT NODE          1   DOF  2
   INSTANCE: CUBE_ASSEMBLY                                                                   
 LARGEST CORRECTION TO DISP.       -3.302E-08   AT NODE          1   DOF  1
   INSTANCE: CUBE_ASSEMBLY                                                                   
          THE FORCE     EQUILIBRIUM EQUATIONS HAVE CONVERGED

 ITERATION SUMMARY FOR THE INCREMENT:   3 TOTAL ITERATIONS, OF WHICH
   0 ARE SEVERE DISCONTINUITY ITERATIONS AND  3 ARE EQUILIBRIUM ITERATIONS.

 TIME INCREMENT COMPLETED   1.00    ,  FRACTION OF STEP COMPLETED  1.000E-02
 STEP TIME COMPLETED        1.00    ,  TOTAL TIME COMPLETED         1.00    


  INCREMENT     2 STARTS. ATTEMPT NUMBER  1, TIME INCREMENT   1.00    
 
	SYMMETRIC NEW DIRECT SPARSE SOLVER RUNNING ON
 	1 HOST x 1 MPI RANK PER HOST x 1 THREAD PER RANK
        NUMBER OF EQUATIONS:  24
        NUMBER OF RHS:        1
        NUMBER OF FLOPS:      4.900e+03
        SOLVER ELAPSED TIME:  0ms

               CONVERGENCE CHECKS FOR EQUILIBRIUM ITERATION     1


 AVERAGE FORCE                       120.       TIME AVG. FORCE        87.4    
 LARGEST SCALED RESIDUAL FORCE       1.04       AT NODE          1   DOF  1
   INSTANCE: CUBE_ASSEMBLY                                                                   
  CORRESPONDING RESIDUAL FORCE       1.04    
 LARGEST INCREMENT OF DISP.         1.000E-05   AT NODE          1   DOF  2
   INSTANCE: CUBE_ASSEMBLY                                                                   
 LARGEST CORRECTION TO DISP.       -1.932E-06   AT NODE          1   DOF  3
   INSTANCE: CUBE_ASSEMBLY                                                                   
          FORCE     EQUILIBRIUM NOT ACHIEVED WITHIN TOLERANCE.
 
	SYMMETRIC NEW DIRECT SPARSE SOLVER RUNNING ON
 	1 HOST x 1 MPI RANK PER HOST x 1 THREAD PER RANK
        NUMBER OF EQUATIONS:  24
        NUMBER OF RHS:        1
        NUMBER OF FLOPS:      4.900e+03
        SOLVER ELAPSED TIME:  0ms

               CONVERGENCE CHECKS FOR EQUILIBRIUM ITERATION     2


 AVERAGE FORCE                       120.       TIME AVG. FORCE        87.7    
 LARGEST SCALED RESIDUAL FORCE     -1.765E-02   AT NODE          1   DOF  1
   INSTANCE: CUBE_ASSEMBLY                                                                   
  CORRESPONDING RESIDUAL FORCE     -1.765E-02
 LARGEST INCREMENT OF DISP.         1.000E-05   AT NODE          1   DOF  2
   INSTANCE: CUBE_ASSEMBLY                                                                   
 LARGEST CORRECTION TO DISP.        2.886E-08   AT NODE          1   DOF  1
   INSTANCE: CUBE_ASSEMBLY                                                                   
          THE FORCE     EQUILIBRIUM EQUATIONS HAVE CONVERGED

 ITERATION SUMMARY FOR THE INCREMENT:   2 TOTAL ITERATIONS, OF WHICH
   0 ARE SEVERE DISCONTINUITY ITERATIONS AND  2 ARE EQUILIBRIUM ITERATIONS.

 TIME INCREMENT COMPLETED   1.00    ,  FRACTION OF STEP COMPLETED  2.000E-02
 STEP TIME COMPLETED        2.00    ,  TOTAL TIME COMPLETED         2.00    


  INCREMENT     3 STARTS. ATTEMPT NUMBER  1, TIME INCREMENT   1.00    
 
	SYMMETRIC NEW DIRECT SPARSE SOLVER RUNNING ON
 	1 HOST x 1 MPI RANK PER HOST x 1 THREAD PER RANK
        NUMBER OF EQUATIONS:  24
        NUMBER OF RHS:        1
        NUMBER OF FLOPS:      4.900e+03
        SOLVER ELAPSED TIME:  0ms

               CONVERGENCE CHECKS FOR EQUILIBRIUM ITERATION     1


 AVERAGE FORCE                       123.       TIME AVG. FORCE        99.6    
 LARGEST SCALED RESIDUAL FORCE     -0.280       AT NODE          1   DOF  1
   INSTANCE: CUBE_ASSEMBLY                                                                   
  CORRESPONDING RESIDUAL FORCE     -0.280    
 LARGEST INCREMENT OF DISP.         1.000E-05   AT NODE          1   DOF  2
   INSTANCE: CUBE_ASSEMBLY                                                                   
 LARGEST CORRECTION TO DISP.        2.512E-07   AT NODE          1   DOF  1
   INSTANCE: CUBE_ASSEMBLY                                                                   
 ESTIMATE OF DISP.    CORRECTION   -6.591E-09
 FORCE     EQUILIB. ACCEPTED BASED ON SMALL RESIDUAL AND ESTIMATED CORRECTION

 ITERATION SUMMARY FOR THE INCREMENT:   1 TOTAL ITERATIONS, OF WHICH
   0 ARE SEVERE DISCONTINUITY ITERATIONS AND  1 ARE EQUILIBRIUM ITERATIONS.

 TIME INCREMENT COMPLETED   1.00    ,  FRACTION OF STEP COMPLETED  3.000E-02
 STEP TIME COMPLETED        3.00    ,  TOTAL TIME COMPLETED         3.00    


  INCREMENT     4 STARTS. ATTEMPT NUMBER  1, TIME INCREMENT   1.00    
 
	SYMMETRIC NEW DIRECT SPARSE SOLVER RUNNING ON
 	1 HOST x 1 MPI RANK PER HOST x 1 THREAD PER RANK
        NUMBER OF EQUATIONS:  24
        NUMBER OF RHS:        1
        NUMBER OF FLOPS:      4.900e+03
        SOLVER ELAPSED TIME:  0ms

               CONVERGENCE CHECKS FOR EQUILIBRIUM ITERATION     1


 AVERAGE FORCE                       123.       TIME AVG. FORCE        106.    
 LARGEST SCALED RESIDUAL FORCE     -0.492       AT NODE          1   DOF  1
   INSTANCE: CUBE_ASSEMBLY                                                                   
  CORRESPONDING RESIDUAL FORCE     -0.492    
 LARGEST INCREMENT OF DISP.         1.000E-05   AT NODE          1   DOF  2
   INSTANCE: CUBE_ASSEMBLY                                                                   
 LARGEST CORRECTION TO DISP.        3.246E-07   AT NODE          1   DOF  1
   INSTANCE: CUBE_ASSEMBLY                                                                   
 ESTIMATE OF DISP.    CORRECTION   -1.145E-08
 FORCE     EQUILIB. ACCEPTED BASED ON SMALL RESIDUAL AND ESTIMATED CORRECTION

 ITERATION SUMMARY FOR THE INCREMENT:   1 TOTAL ITERATIONS, OF WHICH
   0 ARE SEVERE DISCONTINUITY ITERATIONS AND  1 ARE EQUILIBRIUM ITERATIONS.

 TIME INCREMENT COMPLETED   1.00    ,  FRACTION OF STEP COMPLETED  4.000E-02
 STEP TIME COMPLETED        4.00    ,  TOTAL TIME COMPLETED         4.00    


  INCREMENT     5 STARTS. ATTEMPT NUMBER  1, TIME INCREMENT   1.00    
 
	SYMMETRIC NEW DIRECT SPARSE SOLVER RUNNING ON
 	1 HOST x 1 MPI RANK PER HOST x 1 THREAD PER RANK
        NUMBER OF EQUATIONS:  24
        NUMBER OF RHS:        1
        NUMBER OF FLOPS:      4.900e+03
        SOLVER ELAPSED TIME:  0ms

               CONVERGENCE CHECKS FOR EQUILIBRIUM ITERATION     1


 AVERAGE FORCE                       122.       TIME AVG. FORCE        109.    
 LARGEST SCALED RESIDUAL FORCE     -0.656       AT NODE          1   DOF  1
   INSTANCE: CUBE_ASSEMBLY                                                                   
  CORRESPONDING RESIDUAL FORCE     -0.656    
 LARGEST INCREMENT OF DISP.         1.000E-05   AT NODE          1   DOF  2
   INSTANCE: CUBE_ASSEMBLY                                                                   
 LARGEST CORRECTION TO DISP.        3.402E-07   AT NODE          1   DOF  1
   INSTANCE: CUBE_ASSEMBLY                                                                   
          FORCE     EQUILIBRIUM NOT ACHIEVED WITHIN TOLERANCE.
 
	SYMMETRIC NEW DIRECT SPARSE SOLVER RUNNING ON
 	1 HOST x 1 MPI RANK PER HOST x 1 THREAD PER RANK
        NUMBER OF EQUATIONS:  24
        NUMBER OF RHS:        1
        NUMBER OF FLOPS:      4.900e+03
        SOLVER ELAPSED TIME:  0ms

               CONVERGENCE CHECKS FOR EQUILIBRIUM ITERATION     2


 AVERAGE FORCE                       122.       TIME AVG. FORCE        109.    
 LARGEST SCALED RESIDUAL FORCE      2.871E-02   AT NODE          1   DOF  1
   INSTANCE: CUBE_ASSEMBLY                                                                   
  CORRESPONDING RESIDUAL FORCE      2.871E-02
 LARGEST INCREMENT OF DISP.         1.000E-05   AT NODE          1   DOF  2
   INSTANCE: CUBE_ASSEMBLY                                                                   
 LARGEST CORRECTION TO DISP.       -1.756E-08   AT NODE          1   DOF  1
   INSTANCE: CUBE_ASSEMBLY                                                                   
          THE FORCE     EQUILIBRIUM EQUATIONS HAVE CONVERGED

 ITERATION SUMMARY FOR THE INCREMENT:   2 TOTAL ITERATIONS, OF WHICH
   0 ARE SEVERE DISCONTINUITY ITERATIONS AND  2 ARE EQUILIBRIUM ITERATIONS.

 TIME INCREMENT COMPLETED   1.00    ,  FRACTION OF STEP COMPLETED  5.000E-02
 STEP TIME COMPLETED        5.00    ,  TOTAL TIME COMPLETED         5.00    


  INCREMENT     6 STARTS. ATTEMPT NUMBER  1, TIME INCREMENT   1.00    
 
	SYMMETRIC NEW DIRECT SPARSE SOLVER RUNNING ON
 	1 HOST x 1 MPI RANK PER HOST x 1 THREAD PER RANK
        NUMBER OF EQUATIONS:  24
        NUMBER OF RHS:        1
        NUMBER OF FLOPS:      4.900e+03
        SOLVER ELAPSED TIME:  0ms

               CONVERGENCE CHECKS FOR EQUILIBRIUM ITERATION     1


 AVERAGE FORCE                       121.       TIME AVG. FORCE        111.    
 LARGEST SCALED RESIDUAL FORCE     -0.845       AT NODE          1   DOF  1
   INSTANCE: CUBE_ASSEMBLY                                                                   
  CORRESPONDING RESIDUAL FORCE     -0.845    
 LARGEST INCREMENT OF DISP.         1.000E-05   AT NODE          1   DOF  2
   INSTANCE: CUBE_ASSEMBLY                                                                   
 LARGEST CORRECTION TO DISP.        3.642E-07   AT NODE          1   DOF  1
   INSTANCE: CUBE_ASSEMBLY                                                                   
          FORCE     EQUILIBRIUM NOT ACHIEVED WITHIN TOLERANCE.
 
	SYMMETRIC NEW DIRECT SPARSE SOLVER RUNNING ON
 	1 HOST x 1 MPI RANK PER HOST x 1 THREAD PER RANK
        NUMBER OF EQUATIONS:  24
        NUMBER OF RHS:        1
        NUMBER OF FLOPS:      4.900e+03
        SOLVER ELAPSED TIME:  0ms

               CONVERGENCE CHECKS FOR EQUILIBRIUM ITERATION     2


 AVERAGE FORCE                       120.       TIME AVG. FORCE        111.    
 LARGEST SCALED RESIDUAL FORCE      4.417E-02   AT NODE          1   DOF  1
   INSTANCE: CUBE_ASSEMBLY                                                                   
  CORRESPONDING RESIDUAL FORCE      4.417E-02
 LARGEST INCREMENT OF DISP.         1.000E-05   AT NODE          1   DOF  2
   INSTANCE: CUBE_ASSEMBLY                                                                   
 LARGEST CORRECTION TO DISP.       -2.218E-08   AT NODE          1   DOF  1
   INSTANCE: CUBE_ASSEMBLY                                                                   
          THE FORCE     EQUILIBRIUM EQUATIONS HAVE CONVERGED

 ITERATION SUMMARY FOR THE INCREMENT:   2 TOTAL ITERATIONS, OF WHICH
   0 ARE SEVERE DISCONTINUITY ITERATIONS AND  2 ARE EQUILIBRIUM ITERATIONS.

 TIME INCREMENT COMPLETED   1.00    ,  FRACTION OF STEP COMPLETED  6.000E-02
 STEP TIME COMPLETED        6.00    ,  TOTAL TIME COMPLETED         6.00    


  INCREMENT     7 STARTS. ATTEMPT NUMBER  1, TIME INCREMENT   1.00    
 
	SYMMETRIC NEW DIRECT SPARSE SOLVER RUNNING ON
 	1 HOST x 1 MPI RANK PER HOST x 1 THREAD PER RANK
        NUMBER OF EQUATIONS:  24
        NUMBER OF RHS:        1
        NUMBER OF FLOPS:      4.900e+03
        SOLVER ELAPSED TIME:  0ms

               CONVERGENCE CHECKS FOR EQUILIBRIUM ITERATION     1


 AVERAGE FORCE                       120.       TIME AVG. FORCE        112.    
 LARGEST SCALED RESIDUAL FORCE     -0.922       AT NODE          1   DOF  1
   INSTANCE: CUBE_ASSEMBLY                                                                   
  CORRESPONDING RESIDUAL FORCE     -0.922    
 LARGEST INCREMENT OF DISP.         1.000E-05   AT NODE          1   DOF  2
   INSTANCE: CUBE_ASSEMBLY                                                                   
 LARGEST CORRECTION TO DISP.        3.390E-07   AT NODE          1   DOF  1
   INSTANCE: CUBE_ASSEMBLY                                                                   
          FORCE     EQUILIBRIUM NOT ACHIEVED WITHIN TOLERANCE.
 
	SYMMETRIC NEW DIRECT SPARSE SOLVER RUNNING ON
 	1 HOST x 1 MPI RANK PER HOST x 1 THREAD PER RANK
        NUMBER OF EQUATIONS:  24
        NUMBER OF RHS:        1
        NUMBER OF FLOPS:      4.900e+03
        SOLVER ELAPSED TIME:  0ms

               CONVERGENCE CHECKS FOR EQUILIBRIUM ITERATION     2


 AVERAGE FORCE                       119.       TIME AVG. FORCE        112.    
 LARGEST SCALED RESIDUAL FORCE      5.572E-02   AT NODE          1   DOF  1
   INSTANCE: CUBE_ASSEMBLY                                                                   
  CORRESPONDING RESIDUAL FORCE      5.572E-02
 LARGEST INCREMENT OF DISP.         1.000E-05   AT NODE          1   DOF  2
   INSTANCE: CUBE_ASSEMBLY                                                                   
 LARGEST CORRECTION TO DISP.       -2.351E-08   AT NODE          1   DOF  1
   INSTANCE: CUBE_ASSEMBLY                                                                   
          THE FORCE     EQUILIBRIUM EQUATIONS HAVE CONVERGED

 ITERATION SUMMARY FOR THE INCREMENT:   2 TOTAL ITERATIONS, OF WHICH
   0 ARE SEVERE DISCONTINUITY ITERATIONS AND  2 ARE EQUILIBRIUM ITERATIONS.

 TIME INCREMENT COMPLETED   1.00    ,  FRACTION OF STEP COMPLETED  7.000E-02
 STEP TIME COMPLETED        7.00    ,  TOTAL TIME COMPLETED         7.00    


  INCREMENT     8 STARTS. ATTEMPT NUMBER  1, TIME INCREMENT   1.00    
 
	SYMMETRIC NEW DIRECT SPARSE SOLVER RUNNING ON
 	1 HOST x 1 MPI RANK PER HOST x 1 THREAD PER RANK
        NUMBER OF EQUATIONS:  24
        NUMBER OF RHS:        1
        NUMBER OF FLOPS:      4.900e+03
        SOLVER ELAPSED TIME:  0ms

               CONVERGENCE CHECKS FOR EQUILIBRIUM ITERATION     1


 AVERAGE FORCE                       118.       TIME AVG. FORCE        113.    
 LARGEST SCALED RESIDUAL FORCE      -1.01       AT NODE          1   DOF  1
   INSTANCE: CUBE_ASSEMBLY                                                                   
  CORRESPONDING RESIDUAL FORCE      -1.01    
 LARGEST INCREMENT OF DISP.         1.000E-05   AT NODE          1   DOF  2
   INSTANCE: CUBE_ASSEMBLY                                                                   
 LARGEST CORRECTION TO DISP.        3.225E-07   AT NODE          1   DOF  1
   INSTANCE: CUBE_ASSEMBLY                                                                   
          FORCE     EQUILIBRIUM NOT ACHIEVED WITHIN TOLERANCE.
 
	SYMMETRIC NEW DIRECT SPARSE SOLVER RUNNING ON
 	1 HOST x 1 MPI RANK PER HOST x 1 THREAD PER RANK
        NUMBER OF EQUATIONS:  24
        NUMBER OF RHS:        1
        NUMBER OF FLOPS:      4.900e+03
        SOLVER ELAPSED TIME:  1ms

               CONVERGENCE CHECKS FOR EQUILIBRIUM ITERATION     2


 AVERAGE FORCE                       117.       TIME AVG. FORCE        113.    
 LARGEST SCALED RESIDUAL FORCE      6.879E-02   AT NODE          1   DOF  1
   INSTANCE: CUBE_ASSEMBLY                                                                   
  CORRESPONDING RESIDUAL FORCE      6.879E-02
 LARGEST INCREMENT OF DISP.         1.000E-05   AT NODE          1   DOF  2
   INSTANCE: CUBE_ASSEMBLY                                                                   
 LARGEST CORRECTION TO DISP.       -2.497E-08   AT NODE          1   DOF  1
   INSTANCE: CUBE_ASSEMBLY                                                                   
          THE FORCE     EQUILIBRIUM EQUATIONS HAVE CONVERGED

 ITERATION SUMMARY FOR THE INCREMENT:   2 TOTAL ITERATIONS, OF WHICH
   0 ARE SEVERE DISCONTINUITY ITERATIONS AND  2 ARE EQUILIBRIUM ITERATIONS.

 TIME INCREMENT COMPLETED   1.00    ,  FRACTION OF STEP COMPLETED  8.000E-02
 STEP TIME COMPLETED        8.00    ,  TOTAL TIME COMPLETED         8.00    


  INCREMENT     9 STARTS. ATTEMPT NUMBER  1, TIME INCREMENT   1.00    
 
	SYMMETRIC NEW DIRECT SPARSE SOLVER RUNNING ON
 	1 HOST x 1 MPI RANK PER HOST x 1 THREAD PER RANK
        NUMBER OF EQUATIONS:  24
        NUMBER OF RHS:        1
        NUMBER OF FLOPS:      4.900e+03
        SOLVER ELAPSED TIME:  0ms

               CONVERGENCE CHECKS FOR EQUILIBRIUM ITERATION     1


 AVERAGE FORCE                       116.       TIME AVG. FORCE        113.    
 LARGEST SCALED RESIDUAL FORCE      -1.08       AT NODE          1   DOF  1
   INSTANCE: CUBE_ASSEMBLY                                                                   
  CORRESPONDING RESIDUAL FORCE      -1.08    
 LARGEST INCREMENT OF DISP.         1.000E-05   AT NODE          1   DOF  2
   INSTANCE: CUBE_ASSEMBLY                                                                   
 LARGEST CORRECTION TO DISP.        3.060E-07   AT NODE          1   DOF  1
   INSTANCE: CUBE_ASSEMBLY                                                                   
          FORCE     EQUILIBRIUM NOT ACHIEVED WITHIN TOLERANCE.
 
	SYMMETRIC NEW DIRECT SPARSE SOLVER RUNNING ON
 	1 HOST x 1 MPI RANK PER HOST x 1 THREAD PER RANK
        NUMBER OF EQUATIONS:  24
        NUMBER OF RHS:        1
        NUMBER OF FLOPS:      4.900e+03
        SOLVER ELAPSED TIME:  0ms

               CONVERGENCE CHECKS FOR EQUILIBRIUM ITERATION     2


 AVERAGE FORCE                       115.       TIME AVG. FORCE        113.    
 LARGEST SCALED RESIDUAL FORCE      8.198E-02   AT NODE          1   DOF  1
   INSTANCE: CUBE_ASSEMBLY                                                                   
  CORRESPONDING RESIDUAL FORCE      8.198E-02
 LARGEST INCREMENT OF DISP.         1.000E-05   AT NODE          1   DOF  2
   INSTANCE: CUBE_ASSEMBLY                                                                   
 LARGEST CORRECTION TO DISP.       -2.609E-08   AT NODE          1   DOF  1
   INSTANCE: CUBE_ASSEMBLY                                                                   
          THE FORCE     EQUILIBRIUM EQUATIONS HAVE CONVERGED

 ITERATION SUMMARY FOR THE INCREMENT:   2 TOTAL ITERATIONS, OF WHICH
   0 ARE SEVERE DISCONTINUITY ITERATIONS AND  2 ARE EQUILIBRIUM ITERATIONS.

 TIME INCREMENT COMPLETED   1.00    ,  FRACTION OF STEP COMPLETED  9.000E-02
 STEP TIME COMPLETED        9.00    ,  TOTAL TIME COMPLETED         9.00    


  INCREMENT    10 STARTS. ATTEMPT NUMBER  1, TIME INCREMENT   1.00    
 
	SYMMETRIC NEW DIRECT SPARSE SOLVER RUNNING ON
 	1 HOST x 1 MPI RANK PER HOST x 1 THREAD PER RANK
        NUMBER OF EQUATIONS:  24
        NUMBER OF RHS:        1
        NUMBER OF FLOPS:      4.900e+03
        SOLVER ELAPSED TIME:  0ms

               CONVERGENCE CHECKS FOR EQUILIBRIUM ITERATION     1


 AVERAGE FORCE                       115.       TIME AVG. FORCE        113.    
 LARGEST SCALED RESIDUAL FORCE      -1.14       AT NODE          1   DOF  1
   INSTANCE: CUBE_ASSEMBLY                                                                   
  CORRESPONDING RESIDUAL FORCE      -1.14    
 LARGEST INCREMENT OF DISP.         1.000E-05   AT NODE          1   DOF  2
   INSTANCE: CUBE_ASSEMBLY                                                                   
 LARGEST CORRECTION TO DISP.        2.903E-07   AT NODE          1   DOF  1
   INSTANCE: CUBE_ASSEMBLY                                                                   
          FORCE     EQUILIBRIUM NOT ACHIEVED WITHIN TOLERANCE.
 
	SYMMETRIC NEW DIRECT SPARSE SOLVER RUNNING ON
 	1 HOST x 1 MPI RANK PER HOST x 1 THREAD PER RANK
        NUMBER OF EQUATIONS:  24
        NUMBER OF RHS:        1
        NUMBER OF FLOPS:      4.900e+03
        SOLVER ELAPSED TIME:  0ms

               CONVERGENCE CHECKS FOR EQUILIBRIUM ITERATION     2


 AVERAGE FORCE                       114.       TIME AVG. FORCE        113.    
 LARGEST SCALED RESIDUAL FORCE      9.518E-02   AT NODE          1   DOF  1
   INSTANCE: CUBE_ASSEMBLY                                                                   
  CORRESPONDING RESIDUAL FORCE      9.518E-02
 LARGEST INCREMENT OF DISP.         1.000E-05   AT NODE          1   DOF  2
   INSTANCE: CUBE_ASSEMBLY                                                                   
 LARGEST CORRECTION TO DISP.       -2.693E-08   AT NODE          1   DOF  1
   INSTANCE: CUBE_ASSEMBLY                                                                   
          THE FORCE     EQUILIBRIUM EQUATIONS HAVE CONVERGED

 ITERATION SUMMARY FOR THE INCREMENT:   2 TOTAL ITERATIONS, OF WHICH
   0 ARE SEVERE DISCONTINUITY ITERATIONS AND  2 ARE EQUILIBRIUM ITERATIONS.

 TIME INCREMENT COMPLETED   1.00    ,  FRACTION OF STEP COMPLETED  0.100    
 STEP TIME COMPLETED        10.0    ,  TOTAL TIME COMPLETED         10.0    


  INCREMENT    11 STARTS. ATTEMPT NUMBER  1, TIME INCREMENT   1.00    
 
	SYMMETRIC NEW DIRECT SPARSE SOLVER RUNNING ON
 	1 HOST x 1 MPI RANK PER HOST x 1 THREAD PER RANK
        NUMBER OF EQUATIONS:  24
        NUMBER OF RHS:        1
        NUMBER OF FLOPS:      4.900e+03
        SOLVER ELAPSED TIME:  0ms

               CONVERGENCE CHECKS FOR EQUILIBRIUM ITERATION     1


 AVERAGE FORCE                       113.       TIME AVG. FORCE        113.    
 LARGEST SCALED RESIDUAL FORCE      -1.19       AT NODE          1   DOF  1
   INSTANCE: CUBE_ASSEMBLY                                                                   
  CORRESPONDING RESIDUAL FORCE      -1.19    
 LARGEST INCREMENT OF DISP.         1.000E-05   AT NODE          1   DOF  2
   INSTANCE: CUBE_ASSEMBLY                                                                   
 LARGEST CORRECTION TO DISP.        2.760E-07   AT NODE          1   DOF  1
   INSTANCE: CUBE_ASSEMBLY                                                                   
          FORCE     EQUILIBRIUM NOT ACHIEVED WITHIN TOLERANCE.
 
	SYMMETRIC NEW DIRECT SPARSE SOLVER RUNNING ON
 	1 HOST x 1 MPI RANK PER HOST x 1 THREAD PER RANK
        NUMBER OF EQUATIONS:  24
        NUMBER OF RHS:        1
        NUMBER OF FLOPS:      4.900e+03
        SOLVER ELAPSED TIME:  0ms

               CONVERGENCE CHECKS FOR EQUILIBRIUM ITERATION     2


 AVERAGE FORCE                       112.       TIME AVG. FORCE        113.    
 LARGEST SCALED RESIDUAL FORCE      0.108       AT NODE          1   DOF  1
   INSTANCE: CUBE_ASSEMBLY                                                                   
  CORRESPONDING RESIDUAL FORCE      0.108    
 LARGEST INCREMENT OF DISP.         1.000E-05   AT NODE          1   DOF  2
   INSTANCE: CUBE_ASSEMBLY                                                                   
 LARGEST CORRECTION TO DISP.       -2.763E-08   AT NODE          1   DOF  1
   INSTANCE: CUBE_ASSEMBLY                                                                   
          THE FORCE     EQUILIBRIUM EQUATIONS HAVE CONVERGED

 ITERATION SUMMARY FOR THE INCREMENT:   2 TOTAL ITERATIONS, OF WHICH
   0 ARE SEVERE DISCONTINUITY ITERATIONS AND  2 ARE EQUILIBRIUM ITERATIONS.

 TIME INCREMENT COMPLETED   1.00    ,  FRACTION OF STEP COMPLETED  0.110    
 STEP TIME COMPLETED        11.0    ,  TOTAL TIME COMPLETED         11.0    


  INCREMENT    12 STARTS. ATTEMPT NUMBER  1, TIME INCREMENT   1.00    
 
	SYMMETRIC NEW DIRECT SPARSE SOLVER RUNNING ON
 	1 HOST x 1 MPI RANK PER HOST x 1 THREAD PER RANK
        NUMBER OF EQUATIONS:  24
        NUMBER OF RHS:        1
        NUMBER OF FLOPS:      4.900e+03
        SOLVER ELAPSED TIME:  0ms

               CONVERGENCE CHECKS FOR EQUILIBRIUM ITERATION     1


 AVERAGE FORCE                       111.       TIME AVG. FORCE        113.    
 LARGEST SCALED RESIDUAL FORCE      -1.24       AT NODE          1   DOF  1
   INSTANCE: CUBE_ASSEMBLY                                                                   
  CORRESPONDING RESIDUAL FORCE      -1.24    
 LARGEST INCREMENT OF DISP.         1.000E-05   AT NODE          1   DOF  2
   INSTANCE: CUBE_ASSEMBLY                                                                   
 LARGEST CORRECTION TO DISP.        2.622E-07   AT NODE          1   DOF  1
   INSTANCE: CUBE_ASSEMBLY                                                                   
          FORCE     EQUILIBRIUM NOT ACHIEVED WITHIN TOLERANCE.
 
	SYMMETRIC NEW DIRECT SPARSE SOLVER RUNNING ON
 	1 HOST x 1 MPI RANK PER HOST x 1 THREAD PER RANK
        NUMBER OF EQUATIONS:  24
        NUMBER OF RHS:        1
        NUMBER OF FLOPS:      4.900e+03
        SOLVER ELAPSED TIME:  0ms

               CONVERGENCE CHECKS FOR EQUILIBRIUM ITERATION     2


 AVERAGE FORCE                       110.       TIME AVG. FORCE        113.    
 LARGEST SCALED RESIDUAL FORCE      0.121       AT NODE          1   DOF  1
   INSTANCE: CUBE_ASSEMBLY                                                                   
  CORRESPONDING RESIDUAL FORCE      0.121    
 LARGEST INCREMENT OF DISP.         1.000E-05   AT NODE          1   DOF  2
   INSTANCE: CUBE_ASSEMBLY                                                                   
 LARGEST CORRECTION TO DISP.       -2.808E-08   AT NODE          1   DOF  1
   INSTANCE: CUBE_ASSEMBLY                                                                   
          THE FORCE     EQUILIBRIUM EQUATIONS HAVE CONVERGED

 ITERATION SUMMARY FOR THE INCREMENT:   2 TOTAL ITERATIONS, OF WHICH
   0 ARE SEVERE DISCONTINUITY ITERATIONS AND  2 ARE EQUILIBRIUM ITERATIONS.

 TIME INCREMENT COMPLETED   1.00    ,  FRACTION OF STEP COMPLETED  0.120    
 STEP TIME COMPLETED        12.0    ,  TOTAL TIME COMPLETED         12.0    


  INCREMENT    13 STARTS. ATTEMPT NUMBER  1, TIME INCREMENT   1.00    
 
	SYMMETRIC NEW DIRECT SPARSE SOLVER RUNNING ON
 	1 HOST x 1 MPI RANK PER HOST x 1 THREAD PER RANK
        NUMBER OF EQUATIONS:  24
        NUMBER OF RHS:        1
        NUMBER OF FLOPS:      4.900e+03
        SOLVER ELAPSED TIME:  0ms

               CONVERGENCE CHECKS FOR EQUILIBRIUM ITERATION     1


 AVERAGE FORCE                       110.       TIME AVG. FORCE        112.    
 LARGEST SCALED RESIDUAL FORCE      -1.28       AT NODE          1   DOF  1
   INSTANCE: CUBE_ASSEMBLY                                                                   
  CORRESPONDING RESIDUAL FORCE      -1.28    
 LARGEST INCREMENT OF DISP.         1.000E-05   AT NODE          1   DOF  2
   INSTANCE: CUBE_ASSEMBLY                                                                   
 LARGEST CORRECTION TO DISP.        2.494E-07   AT NODE          1   DOF  1
   INSTANCE: CUBE_ASSEMBLY                                                                   
          FORCE     EQUILIBRIUM NOT ACHIEVED WITHIN TOLERANCE.
 
	SYMMETRIC NEW DIRECT SPARSE SOLVER RUNNING ON
 	1 HOST x 1 MPI RANK PER HOST x 1 THREAD PER RANK
        NUMBER OF EQUATIONS:  24
        NUMBER OF RHS:        1
        NUMBER OF FLOPS:      4.900e+03
        SOLVER ELAPSED TIME:  0ms

               CONVERGENCE CHECKS FOR EQUILIBRIUM ITERATION     2


 AVERAGE FORCE                       109.       TIME AVG. FORCE        112.    
 LARGEST SCALED RESIDUAL FORCE      0.134       AT NODE          1   DOF  1
   INSTANCE: CUBE_ASSEMBLY                                                                   
  CORRESPONDING RESIDUAL FORCE      0.134    
 LARGEST INCREMENT OF DISP.         1.000E-05   AT NODE          1   DOF  2
   INSTANCE: CUBE_ASSEMBLY                                                                   
 LARGEST CORRECTION TO DISP.       -2.840E-08   AT NODE          1   DOF  1
   INSTANCE: CUBE_ASSEMBLY                                                                   
          THE FORCE     EQUILIBRIUM EQUATIONS HAVE CONVERGED

 ITERATION SUMMARY FOR THE INCREMENT:   2 TOTAL ITERATIONS, OF WHICH
   0 ARE SEVERE DISCONTINUITY ITERATIONS AND  2 ARE EQUILIBRIUM ITERATIONS.

 TIME INCREMENT COMPLETED   1.00    ,  FRACTION OF STEP COMPLETED  0.130    
 STEP TIME COMPLETED        13.0    ,  TOTAL TIME COMPLETED         13.0    


  INCREMENT    14 STARTS. ATTEMPT NUMBER  1, TIME INCREMENT   1.00    
 
	SYMMETRIC NEW DIRECT SPARSE SOLVER RUNNING ON
 	1 HOST x 1 MPI RANK PER HOST x 1 THREAD PER RANK
        NUMBER OF EQUATIONS:  24
        NUMBER OF RHS:        1
        NUMBER OF FLOPS:      4.900e+03
        SOLVER ELAPSED TIME:  0ms

               CONVERGENCE CHECKS FOR EQUILIBRIUM ITERATION     1


 AVERAGE FORCE                       108.       TIME AVG. FORCE        112.    
 LARGEST SCALED RESIDUAL FORCE      -1.31       AT NODE          1   DOF  1
   INSTANCE: CUBE_ASSEMBLY                                                                   
  CORRESPONDING RESIDUAL FORCE      -1.31    
 LARGEST INCREMENT OF DISP.         1.000E-05   AT NODE          1   DOF  2
   INSTANCE: CUBE_ASSEMBLY                                                                   
 LARGEST CORRECTION TO DISP.        2.379E-07   AT NODE          1   DOF  1
   INSTANCE: CUBE_ASSEMBLY                                                                   
          FORCE     EQUILIBRIUM NOT ACHIEVED WITHIN TOLERANCE.
 
	SYMMETRIC NEW DIRECT SPARSE SOLVER RUNNING ON
 	1 HOST x 1 MPI RANK PER HOST x 1 THREAD PER RANK
        NUMBER OF EQUATIONS:  24
        NUMBER OF RHS:        1
        NUMBER OF FLOPS:      4.900e+03
        SOLVER ELAPSED TIME:  1ms

               CONVERGENCE CHECKS FOR EQUILIBRIUM ITERATION     2


 AVERAGE FORCE                       107.       TIME AVG. FORCE        112.    
 LARGEST SCALED RESIDUAL FORCE      0.147       AT NODE          1   DOF  1
   INSTANCE: CUBE_ASSEMBLY                                                                   
  CORRESPONDING RESIDUAL FORCE      0.147    
 LARGEST INCREMENT OF DISP.         1.000E-05   AT NODE          1   DOF  2
   INSTANCE: CUBE_ASSEMBLY                                                                   
 LARGEST CORRECTION TO DISP.       -2.867E-08   AT NODE          1   DOF  1
   INSTANCE: CUBE_ASSEMBLY                                                                   
          THE FORCE     EQUILIBRIUM EQUATIONS HAVE CONVERGED

 ITERATION SUMMARY FOR THE INCREMENT:   2 TOTAL ITERATIONS, OF WHICH
   0 ARE SEVERE DISCONTINUITY ITERATIONS AND  2 ARE EQUILIBRIUM ITERATIONS.

 TIME INCREMENT COMPLETED   1.00    ,  FRACTION OF STEP COMPLETED  0.140    
 STEP TIME COMPLETED        14.0    ,  TOTAL TIME COMPLETED         14.0    


  INCREMENT    15 STARTS. ATTEMPT NUMBER  1, TIME INCREMENT   1.00    
 
	SYMMETRIC NEW DIRECT SPARSE SOLVER RUNNING ON
 	1 HOST x 1 MPI RANK PER HOST x 1 THREAD PER RANK
        NUMBER OF EQUATIONS:  24
        NUMBER OF RHS:        1
        NUMBER OF FLOPS:      4.900e+03
        SOLVER ELAPSED TIME:  0ms

               CONVERGENCE CHECKS FOR EQUILIBRIUM ITERATION     1


 AVERAGE FORCE                       107.       TIME AVG. FORCE        112.    
 LARGEST SCALED RESIDUAL FORCE      -1.34       AT NODE          1   DOF  1
   INSTANCE: CUBE_ASSEMBLY                                                                   
  CORRESPONDING RESIDUAL FORCE      -1.34    
 LARGEST INCREMENT OF DISP.         1.000E-05   AT NODE          1   DOF  2
   INSTANCE: CUBE_ASSEMBLY                                                                   
 LARGEST CORRECTION TO DISP.        2.267E-07   AT NODE          1   DOF  1
   INSTANCE: CUBE_ASSEMBLY                                                                   
          FORCE     EQUILIBRIUM NOT ACHIEVED WITHIN TOLERANCE.
 
	SYMMETRIC NEW DIRECT SPARSE SOLVER RUNNING ON
 	1 HOST x 1 MPI RANK PER HOST x 1 THREAD PER RANK
        NUMBER OF EQUATIONS:  24
        NUMBER OF RHS:        1
        NUMBER OF FLOPS:      4.900e+03
        SOLVER ELAPSED TIME:  0ms

               CONVERGENCE CHECKS FOR EQUILIBRIUM ITERATION     2


 AVERAGE FORCE                       106.       TIME AVG. FORCE        111.    
 LARGEST SCALED RESIDUAL FORCE      0.159       AT NODE          1   DOF  1
   INSTANCE: CUBE_ASSEMBLY                                                                   
  CORRESPONDING RESIDUAL FORCE      0.159    
 LARGEST INCREMENT OF DISP.         1.000E-05   AT NODE          1   DOF  2
   INSTANCE: CUBE_ASSEMBLY                                                                   
 LARGEST CORRECTION TO DISP.       -2.877E-08   AT NODE          1   DOF  1
   INSTANCE: CUBE_ASSEMBLY                                                                   
          THE FORCE     EQUILIBRIUM EQUATIONS HAVE CONVERGED

 ITERATION SUMMARY FOR THE INCREMENT:   2 TOTAL ITERATIONS, OF WHICH
   0 ARE SEVERE DISCONTINUITY ITERATIONS AND  2 ARE EQUILIBRIUM ITERATIONS.

 TIME INCREMENT COMPLETED   1.00    ,  FRACTION OF STEP COMPLETED  0.150    
 STEP TIME COMPLETED        15.0    ,  TOTAL TIME COMPLETED         15.0    


  INCREMENT    16 STARTS. ATTEMPT NUMBER  1, TIME INCREMENT   1.00    
 
	SYMMETRIC NEW DIRECT SPARSE SOLVER RUNNING ON
 	1 HOST x 1 MPI RANK PER HOST x 1 THREAD PER RANK
        NUMBER OF EQUATIONS:  24
        NUMBER OF RHS:        1
        NUMBER OF FLOPS:      4.900e+03
        SOLVER ELAPSED TIME:  0ms

               CONVERGENCE CHECKS FOR EQUILIBRIUM ITERATION     1


 AVERAGE FORCE                       105.       TIME AVG. FORCE        111.    
 LARGEST SCALED RESIDUAL FORCE      -1.37       AT NODE          1   DOF  1
   INSTANCE: CUBE_ASSEMBLY                                                                   
  CORRESPONDING RESIDUAL FORCE      -1.37    
 LARGEST INCREMENT OF DISP.         1.000E-05   AT NODE          1   DOF  2
   INSTANCE: CUBE_ASSEMBLY                                                                   
 LARGEST CORRECTION TO DISP.        2.167E-07   AT NODE          1   DOF  1
   INSTANCE: CUBE_ASSEMBLY                                                                   
          FORCE     EQUILIBRIUM NOT ACHIEVED WITHIN TOLERANCE.
 
	SYMMETRIC NEW DIRECT SPARSE SOLVER RUNNING ON
 	1 HOST x 1 MPI RANK PER HOST x 1 THREAD PER RANK
        NUMBER OF EQUATIONS:  24
        NUMBER OF RHS:        1
        NUMBER OF FLOPS:      4.900e+03
        SOLVER ELAPSED TIME:  0ms

               CONVERGENCE CHECKS FOR EQUILIBRIUM ITERATION     2


 AVERAGE FORCE                       104.       TIME AVG. FORCE        111.    
 LARGEST SCALED RESIDUAL FORCE      0.171       AT NODE          1   DOF  1
   INSTANCE: CUBE_ASSEMBLY                                                                   
  CORRESPONDING RESIDUAL FORCE      0.171    
 LARGEST INCREMENT OF DISP.         1.000E-05   AT NODE          1   DOF  2
   INSTANCE: CUBE_ASSEMBLY                                                                   
 LARGEST CORRECTION TO DISP.       -2.886E-08   AT NODE          1   DOF  1
   INSTANCE: CUBE_ASSEMBLY                                                                   
          THE FORCE     EQUILIBRIUM EQUATIONS HAVE CONVERGED

 ITERATION SUMMARY FOR THE INCREMENT:   2 TOTAL ITERATIONS, OF WHICH
   0 ARE SEVERE DISCONTINUITY ITERATIONS AND  2 ARE EQUILIBRIUM ITERATIONS.

 TIME INCREMENT COMPLETED   1.00    ,  FRACTION OF STEP COMPLETED  0.160    
 STEP TIME COMPLETED        16.0    ,  TOTAL TIME COMPLETED         16.0    


  INCREMENT    17 STARTS. ATTEMPT NUMBER  1, TIME INCREMENT   1.00    
 
	SYMMETRIC NEW DIRECT SPARSE SOLVER RUNNING ON
 	1 HOST x 1 MPI RANK PER HOST x 1 THREAD PER RANK
        NUMBER OF EQUATIONS:  24
        NUMBER OF RHS:        1
        NUMBER OF FLOPS:      4.900e+03
        SOLVER ELAPSED TIME:  1ms

               CONVERGENCE CHECKS FOR EQUILIBRIUM ITERATION     1


 AVERAGE FORCE                       104.       TIME AVG. FORCE        111.    
 LARGEST SCALED RESIDUAL FORCE      -1.39       AT NODE          1   DOF  1
   INSTANCE: CUBE_ASSEMBLY                                                                   
  CORRESPONDING RESIDUAL FORCE      -1.39    
 LARGEST INCREMENT OF DISP.         1.000E-05   AT NODE          1   DOF  2
   INSTANCE: CUBE_ASSEMBLY                                                                   
 LARGEST CORRECTION TO DISP.        2.073E-07   AT NODE          1   DOF  1
   INSTANCE: CUBE_ASSEMBLY                                                                   
          FORCE     EQUILIBRIUM NOT ACHIEVED WITHIN TOLERANCE.
 
	SYMMETRIC NEW DIRECT SPARSE SOLVER RUNNING ON
 	1 HOST x 1 MPI RANK PER HOST x 1 THREAD PER RANK
        NUMBER OF EQUATIONS:  24
        NUMBER OF RHS:        1
        NUMBER OF FLOPS:      4.900e+03
        SOLVER ELAPSED TIME:  0ms

               CONVERGENCE CHECKS FOR EQUILIBRIUM ITERATION     2


 AVERAGE FORCE                       103.       TIME AVG. FORCE        111.    
 LARGEST SCALED RESIDUAL FORCE      0.183       AT NODE          1   DOF  1
   INSTANCE: CUBE_ASSEMBLY                                                                   
  CORRESPONDING RESIDUAL FORCE      0.183    
 LARGEST INCREMENT OF DISP.         1.000E-05   AT NODE          1   DOF  2
   INSTANCE: CUBE_ASSEMBLY                                                                   
 LARGEST CORRECTION TO DISP.       -2.887E-08   AT NODE          1   DOF  1
   INSTANCE: CUBE_ASSEMBLY                                                                   
          THE FORCE     EQUILIBRIUM EQUATIONS HAVE CONVERGED

 ITERATION SUMMARY FOR THE INCREMENT:   2 TOTAL ITERATIONS, OF WHICH
   0 ARE SEVERE DISCONTINUITY ITERATIONS AND  2 ARE EQUILIBRIUM ITERATIONS.

 TIME INCREMENT COMPLETED   1.00    ,  FRACTION OF STEP COMPLETED  0.170    
 STEP TIME COMPLETED        17.0    ,  TOTAL TIME COMPLETED         17.0    


  INCREMENT    18 STARTS. ATTEMPT NUMBER  1, TIME INCREMENT   1.00    
 
	SYMMETRIC NEW DIRECT SPARSE SOLVER RUNNING ON
 	1 HOST x 1 MPI RANK PER HOST x 1 THREAD PER RANK
        NUMBER OF EQUATIONS:  24
        NUMBER OF RHS:        1
        NUMBER OF FLOPS:      4.900e+03
        SOLVER ELAPSED TIME:  0ms

               CONVERGENCE CHECKS FOR EQUILIBRIUM ITERATION     1


 AVERAGE FORCE                       103.       TIME AVG. FORCE        110.    
 LARGEST SCALED RESIDUAL FORCE      -1.41       AT NODE          1   DOF  1
   INSTANCE: CUBE_ASSEMBLY                                                                   
  CORRESPONDING RESIDUAL FORCE      -1.41    
 LARGEST INCREMENT OF DISP.         1.000E-05   AT NODE          1   DOF  2
   INSTANCE: CUBE_ASSEMBLY                                                                   
 LARGEST CORRECTION TO DISP.        1.982E-07   AT NODE          1   DOF  1
   INSTANCE: CUBE_ASSEMBLY                                                                   
          FORCE     EQUILIBRIUM NOT ACHIEVED WITHIN TOLERANCE.
 
	SYMMETRIC NEW DIRECT SPARSE SOLVER RUNNING ON
 	1 HOST x 1 MPI RANK PER HOST x 1 THREAD PER RANK
        NUMBER OF EQUATIONS:  24
        NUMBER OF RHS:        1
        NUMBER OF FLOPS:      4.900e+03
        SOLVER ELAPSED TIME:  0ms

               CONVERGENCE CHECKS FOR EQUILIBRIUM ITERATION     2


 AVERAGE FORCE                       101.       TIME AVG. FORCE        110.    
 LARGEST SCALED RESIDUAL FORCE      0.194       AT NODE          1   DOF  1
   INSTANCE: CUBE_ASSEMBLY                                                                   
  CORRESPONDING RESIDUAL FORCE      0.194    
 LARGEST INCREMENT OF DISP.         1.000E-05   AT NODE          1   DOF  2
   INSTANCE: CUBE_ASSEMBLY                                                                   
 LARGEST CORRECTION TO DISP.       -2.877E-08   AT NODE          1   DOF  1
   INSTANCE: CUBE_ASSEMBLY                                                                   
          THE FORCE     EQUILIBRIUM EQUATIONS HAVE CONVERGED

 ITERATION SUMMARY FOR THE INCREMENT:   2 TOTAL ITERATIONS, OF WHICH
   0 ARE SEVERE DISCONTINUITY ITERATIONS AND  2 ARE EQUILIBRIUM ITERATIONS.

 TIME INCREMENT COMPLETED   1.00    ,  FRACTION OF STEP COMPLETED  0.180    
 STEP TIME COMPLETED        18.0    ,  TOTAL TIME COMPLETED         18.0    


  INCREMENT    19 STARTS. ATTEMPT NUMBER  1, TIME INCREMENT   1.00    
 
	SYMMETRIC NEW DIRECT SPARSE SOLVER RUNNING ON
 	1 HOST x 1 MPI RANK PER HOST x 1 THREAD PER RANK
        NUMBER OF EQUATIONS:  24
        NUMBER OF RHS:        1
        NUMBER OF FLOPS:      4.900e+03
        SOLVER ELAPSED TIME:  0ms

               CONVERGENCE CHECKS FOR EQUILIBRIUM ITERATION     1


 AVERAGE FORCE                       101.       TIME AVG. FORCE        110.    
 LARGEST SCALED RESIDUAL FORCE      -1.43       AT NODE          1   DOF  1
   INSTANCE: CUBE_ASSEMBLY                                                                   
  CORRESPONDING RESIDUAL FORCE      -1.43    
 LARGEST INCREMENT OF DISP.         1.000E-05   AT NODE          1   DOF  2
   INSTANCE: CUBE_ASSEMBLY                                                                   
 LARGEST CORRECTION TO DISP.        1.899E-07   AT NODE          1   DOF  1
   INSTANCE: CUBE_ASSEMBLY                                                                   
          FORCE     EQUILIBRIUM NOT ACHIEVED WITHIN TOLERANCE.
 
	SYMMETRIC NEW DIRECT SPARSE SOLVER RUNNING ON
 	1 HOST x 1 MPI RANK PER HOST x 1 THREAD PER RANK
        NUMBER OF EQUATIONS:  24
        NUMBER OF RHS:        1
        NUMBER OF FLOPS:      4.900e+03
        SOLVER ELAPSED TIME:  0ms

               CONVERGENCE CHECKS FOR EQUILIBRIUM ITERATION     2


 AVERAGE FORCE                       99.9       TIME AVG. FORCE        109.    
 LARGEST SCALED RESIDUAL FORCE      0.205       AT NODE          1   DOF  1
   INSTANCE: CUBE_ASSEMBLY                                                                   
  CORRESPONDING RESIDUAL FORCE      0.205    
 LARGEST INCREMENT OF DISP.         1.000E-05   AT NODE          1   DOF  2
   INSTANCE: CUBE_ASSEMBLY                                                                   
 LARGEST CORRECTION TO DISP.       -2.868E-08   AT NODE          1   DOF  1
   INSTANCE: CUBE_ASSEMBLY                                                                   
          THE FORCE     EQUILIBRIUM EQUATIONS HAVE CONVERGED

 ITERATION SUMMARY FOR THE INCREMENT:   2 TOTAL ITERATIONS, OF WHICH
   0 ARE SEVERE DISCONTINUITY ITERATIONS AND  2 ARE EQUILIBRIUM ITERATIONS.

 TIME INCREMENT COMPLETED   1.00    ,  FRACTION OF STEP COMPLETED  0.190    
 STEP TIME COMPLETED        19.0    ,  TOTAL TIME COMPLETED         19.0    


  INCREMENT    20 STARTS. ATTEMPT NUMBER  1, TIME INCREMENT   1.00    
 
	SYMMETRIC NEW DIRECT SPARSE SOLVER RUNNING ON
 	1 HOST x 1 MPI RANK PER HOST x 1 THREAD PER RANK
        NUMBER OF EQUATIONS:  24
        NUMBER OF RHS:        1
        NUMBER OF FLOPS:      4.900e+03
        SOLVER ELAPSED TIME:  0ms

               CONVERGENCE CHECKS FOR EQUILIBRIUM ITERATION     1


 AVERAGE FORCE                       100.       TIME AVG. FORCE        109.    
 LARGEST SCALED RESIDUAL FORCE      -1.44       AT NODE          1   DOF  1
   INSTANCE: CUBE_ASSEMBLY                                                                   
  CORRESPONDING RESIDUAL FORCE      -1.44    
 LARGEST INCREMENT OF DISP.         1.000E-05   AT NODE          1   DOF  2
   INSTANCE: CUBE_ASSEMBLY                                                                   
 LARGEST CORRECTION TO DISP.        1.822E-07   AT NODE          1   DOF  1
   INSTANCE: CUBE_ASSEMBLY                                                                   
          FORCE     EQUILIBRIUM NOT ACHIEVED WITHIN TOLERANCE.
 
	SYMMETRIC NEW DIRECT SPARSE SOLVER RUNNING ON
 	1 HOST x 1 MPI RANK PER HOST x 1 THREAD PER RANK
        NUMBER OF EQUATIONS:  24
        NUMBER OF RHS:        1
        NUMBER OF FLOPS:      4.900e+03
        SOLVER ELAPSED TIME:  0ms

               CONVERGENCE CHECKS FOR EQUILIBRIUM ITERATION     2


 AVERAGE FORCE                       98.6       TIME AVG. FORCE        109.    
 LARGEST SCALED RESIDUAL FORCE      0.216       AT NODE          1   DOF  1
   INSTANCE: CUBE_ASSEMBLY                                                                   
  CORRESPONDING RESIDUAL FORCE      0.216    
 LARGEST INCREMENT OF DISP.         1.000E-05   AT NODE          1   DOF  2
   INSTANCE: CUBE_ASSEMBLY                                                                   
 LARGEST CORRECTION TO DISP.       -2.856E-08   AT NODE          1   DOF  1
   INSTANCE: CUBE_ASSEMBLY                                                                   
          THE FORCE     EQUILIBRIUM EQUATIONS HAVE CONVERGED

 ITERATION SUMMARY FOR THE INCREMENT:   2 TOTAL ITERATIONS, OF WHICH
   0 ARE SEVERE DISCONTINUITY ITERATIONS AND  2 ARE EQUILIBRIUM ITERATIONS.

 TIME INCREMENT COMPLETED   1.00    ,  FRACTION OF STEP COMPLETED  0.200    
 STEP TIME COMPLETED        20.0    ,  TOTAL TIME COMPLETED         20.0    


  INCREMENT    21 STARTS. ATTEMPT NUMBER  1, TIME INCREMENT   1.00    
 
	SYMMETRIC NEW DIRECT SPARSE SOLVER RUNNING ON
 	1 HOST x 1 MPI RANK PER HOST x 1 THREAD PER RANK
        NUMBER OF EQUATIONS:  24
        NUMBER OF RHS:        1
        NUMBER OF FLOPS:      4.900e+03
        SOLVER ELAPSED TIME:  0ms

               CONVERGENCE CHECKS FOR EQUILIBRIUM ITERATION     1


 AVERAGE FORCE                       98.8       TIME AVG. FORCE        108.    
 LARGEST SCALED RESIDUAL FORCE      -1.45       AT NODE          1   DOF  1
   INSTANCE: CUBE_ASSEMBLY                                                                   
  CORRESPONDING RESIDUAL FORCE      -1.45    
 LARGEST INCREMENT OF DISP.         1.000E-05   AT NODE          1   DOF  2
   INSTANCE: CUBE_ASSEMBLY                                                                   
 LARGEST CORRECTION TO DISP.        1.755E-07   AT NODE          5   DOF  3
   INSTANCE: CUBE_ASSEMBLY                                                                   
          FORCE     EQUILIBRIUM NOT ACHIEVED WITHIN TOLERANCE.
 
	SYMMETRIC NEW DIRECT SPARSE SOLVER RUNNING ON
 	1 HOST x 1 MPI RANK PER HOST x 1 THREAD PER RANK
        NUMBER OF EQUATIONS:  24
        NUMBER OF RHS:        1
        NUMBER OF FLOPS:      4.900e+03
        SOLVER ELAPSED TIME:  0ms

               CONVERGENCE CHECKS FOR EQUILIBRIUM ITERATION     2


 AVERAGE FORCE                       97.4       TIME AVG. FORCE        108.    
 LARGEST SCALED RESIDUAL FORCE      0.226       AT NODE          1   DOF  1
   INSTANCE: CUBE_ASSEMBLY                                                                   
  CORRESPONDING RESIDUAL FORCE      0.226    
 LARGEST INCREMENT OF DISP.         1.000E-05   AT NODE          1   DOF  2
   INSTANCE: CUBE_ASSEMBLY                                                                   
 LARGEST CORRECTION TO DISP.       -2.837E-08   AT NODE          1   DOF  1
   INSTANCE: CUBE_ASSEMBLY                                                                   
          THE FORCE     EQUILIBRIUM EQUATIONS HAVE CONVERGED

 ITERATION SUMMARY FOR THE INCREMENT:   2 TOTAL ITERATIONS, OF WHICH
   0 ARE SEVERE DISCONTINUITY ITERATIONS AND  2 ARE EQUILIBRIUM ITERATIONS.

 TIME INCREMENT COMPLETED   1.00    ,  FRACTION OF STEP COMPLETED  0.210    
 STEP TIME COMPLETED        21.0    ,  TOTAL TIME COMPLETED         21.0    


  INCREMENT    22 STARTS. ATTEMPT NUMBER  1, TIME INCREMENT   1.00    
 
	SYMMETRIC NEW DIRECT SPARSE SOLVER RUNNING ON
 	1 HOST x 1 MPI RANK PER HOST x 1 THREAD PER RANK
        NUMBER OF EQUATIONS:  24
        NUMBER OF RHS:        1
        NUMBER OF FLOPS:      4.900e+03
        SOLVER ELAPSED TIME:  0ms

               CONVERGENCE CHECKS FOR EQUILIBRIUM ITERATION     1


 AVERAGE FORCE                       97.6       TIME AVG. FORCE        108.    
 LARGEST SCALED RESIDUAL FORCE      -1.46       AT NODE          1   DOF  1
   INSTANCE: CUBE_ASSEMBLY                                                                   
  CORRESPONDING RESIDUAL FORCE      -1.46    
 LARGEST INCREMENT OF DISP.         1.000E-05   AT NODE          1   DOF  2
   INSTANCE: CUBE_ASSEMBLY                                                                   
 LARGEST CORRECTION TO DISP.        1.693E-07   AT NODE          5   DOF  3
   INSTANCE: CUBE_ASSEMBLY                                                                   
          FORCE     EQUILIBRIUM NOT ACHIEVED WITHIN TOLERANCE.
 
	SYMMETRIC NEW DIRECT SPARSE SOLVER RUNNING ON
 	1 HOST x 1 MPI RANK PER HOST x 1 THREAD PER RANK
        NUMBER OF EQUATIONS:  24
        NUMBER OF RHS:        1
        NUMBER OF FLOPS:      4.900e+03
        SOLVER ELAPSED TIME:  0ms

               CONVERGENCE CHECKS FOR EQUILIBRIUM ITERATION     2


 AVERAGE FORCE                       96.1       TIME AVG. FORCE        108.    
 LARGEST SCALED RESIDUAL FORCE      0.236       AT NODE          1   DOF  1
   INSTANCE: CUBE_ASSEMBLY                                                                   
  CORRESPONDING RESIDUAL FORCE      0.236    
 LARGEST INCREMENT OF DISP.         1.000E-05   AT NODE          1   DOF  2
   INSTANCE: CUBE_ASSEMBLY                                                                   
 LARGEST CORRECTION TO DISP.       -2.819E-08   AT NODE          1   DOF  1
   INSTANCE: CUBE_ASSEMBLY                                                                   
          THE FORCE     EQUILIBRIUM EQUATIONS HAVE CONVERGED

 ITERATION SUMMARY FOR THE INCREMENT:   2 TOTAL ITERATIONS, OF WHICH
   0 ARE SEVERE DISCONTINUITY ITERATIONS AND  2 ARE EQUILIBRIUM ITERATIONS.

 TIME INCREMENT COMPLETED   1.00    ,  FRACTION OF STEP COMPLETED  0.220    
 STEP TIME COMPLETED        22.0    ,  TOTAL TIME COMPLETED         22.0    


  INCREMENT    23 STARTS. ATTEMPT NUMBER  1, TIME INCREMENT   1.00    
 
	SYMMETRIC NEW DIRECT SPARSE SOLVER RUNNING ON
 	1 HOST x 1 MPI RANK PER HOST x 1 THREAD PER RANK
        NUMBER OF EQUATIONS:  24
        NUMBER OF RHS:        1
        NUMBER OF FLOPS:      4.900e+03
        SOLVER ELAPSED TIME:  0ms

               CONVERGENCE CHECKS FOR EQUILIBRIUM ITERATION     1


 AVERAGE FORCE                       96.4       TIME AVG. FORCE        107.    
 LARGEST SCALED RESIDUAL FORCE      -1.47       AT NODE          1   DOF  1
   INSTANCE: CUBE_ASSEMBLY                                                                   
  CORRESPONDING RESIDUAL FORCE      -1.47    
 LARGEST INCREMENT OF DISP.         1.000E-05   AT NODE          1   DOF  2
   INSTANCE: CUBE_ASSEMBLY                                                                   
 LARGEST CORRECTION TO DISP.        1.635E-07   AT NODE          5   DOF  3
   INSTANCE: CUBE_ASSEMBLY                                                                   
          FORCE     EQUILIBRIUM NOT ACHIEVED WITHIN TOLERANCE.
 
	SYMMETRIC NEW DIRECT SPARSE SOLVER RUNNING ON
 	1 HOST x 1 MPI RANK PER HOST x 1 THREAD PER RANK
        NUMBER OF EQUATIONS:  24
        NUMBER OF RHS:        1
        NUMBER OF FLOPS:      4.900e+03
        SOLVER ELAPSED TIME:  0ms

               CONVERGENCE CHECKS FOR EQUILIBRIUM ITERATION     2


 AVERAGE FORCE                       95.0       TIME AVG. FORCE        107.    
 LARGEST SCALED RESIDUAL FORCE      0.246       AT NODE          1   DOF  1
   INSTANCE: CUBE_ASSEMBLY                                                                   
  CORRESPONDING RESIDUAL FORCE      0.246    
 LARGEST INCREMENT OF DISP.         1.000E-05   AT NODE          1   DOF  2
   INSTANCE: CUBE_ASSEMBLY                                                                   
 LARGEST CORRECTION TO DISP.       -2.798E-08   AT NODE          1   DOF  1
   INSTANCE: CUBE_ASSEMBLY                                                                   
          THE FORCE     EQUILIBRIUM EQUATIONS HAVE CONVERGED

 ITERATION SUMMARY FOR THE INCREMENT:   2 TOTAL ITERATIONS, OF WHICH
   0 ARE SEVERE DISCONTINUITY ITERATIONS AND  2 ARE EQUILIBRIUM ITERATIONS.

 TIME INCREMENT COMPLETED   1.00    ,  FRACTION OF STEP COMPLETED  0.230    
 STEP TIME COMPLETED        23.0    ,  TOTAL TIME COMPLETED         23.0    


  INCREMENT    24 STARTS. ATTEMPT NUMBER  1, TIME INCREMENT   1.00    
 
	SYMMETRIC NEW DIRECT SPARSE SOLVER RUNNING ON
 	1 HOST x 1 MPI RANK PER HOST x 1 THREAD PER RANK
        NUMBER OF EQUATIONS:  24
        NUMBER OF RHS:        1
        NUMBER OF FLOPS:      4.900e+03
        SOLVER ELAPSED TIME:  0ms

               CONVERGENCE CHECKS FOR EQUILIBRIUM ITERATION     1


 AVERAGE FORCE                       95.2       TIME AVG. FORCE        107.    
 LARGEST SCALED RESIDUAL FORCE      -1.48       AT NODE          1   DOF  1
   INSTANCE: CUBE_ASSEMBLY                                                                   
  CORRESPONDING RESIDUAL FORCE      -1.48    
 LARGEST INCREMENT OF DISP.         1.000E-05   AT NODE          1   DOF  2
   INSTANCE: CUBE_ASSEMBLY                                                                   
 LARGEST CORRECTION TO DISP.        1.581E-07   AT NODE          5   DOF  3
   INSTANCE: CUBE_ASSEMBLY                                                                   
          FORCE     EQUILIBRIUM NOT ACHIEVED WITHIN TOLERANCE.
 
	SYMMETRIC NEW DIRECT SPARSE SOLVER RUNNING ON
 	1 HOST x 1 MPI RANK PER HOST x 1 THREAD PER RANK
        NUMBER OF EQUATIONS:  24
        NUMBER OF RHS:        1
        NUMBER OF FLOPS:      4.900e+03
        SOLVER ELAPSED TIME:  0ms

               CONVERGENCE CHECKS FOR EQUILIBRIUM ITERATION     2


 AVERAGE FORCE                       93.8       TIME AVG. FORCE        107.    
 LARGEST SCALED RESIDUAL FORCE      0.255       AT NODE          1   DOF  1
   INSTANCE: CUBE_ASSEMBLY                                                                   
  CORRESPONDING RESIDUAL FORCE      0.255    
 LARGEST INCREMENT OF DISP.         1.000E-05   AT NODE          1   DOF  2
   INSTANCE: CUBE_ASSEMBLY                                                                   
 LARGEST CORRECTION TO DISP.       -2.773E-08   AT NODE          1   DOF  1
   INSTANCE: CUBE_ASSEMBLY                                                                   
          THE FORCE     EQUILIBRIUM EQUATIONS HAVE CONVERGED

 ITERATION SUMMARY FOR THE INCREMENT:   2 TOTAL ITERATIONS, OF WHICH
   0 ARE SEVERE DISCONTINUITY ITERATIONS AND  2 ARE EQUILIBRIUM ITERATIONS.

 TIME INCREMENT COMPLETED   1.00    ,  FRACTION OF STEP COMPLETED  0.240    
 STEP TIME COMPLETED        24.0    ,  TOTAL TIME COMPLETED         24.0    


  INCREMENT    25 STARTS. ATTEMPT NUMBER  1, TIME INCREMENT   1.00    
 
	SYMMETRIC NEW DIRECT SPARSE SOLVER RUNNING ON
 	1 HOST x 1 MPI RANK PER HOST x 1 THREAD PER RANK
        NUMBER OF EQUATIONS:  24
        NUMBER OF RHS:        1
        NUMBER OF FLOPS:      4.900e+03
        SOLVER ELAPSED TIME:  0ms

               CONVERGENCE CHECKS FOR EQUILIBRIUM ITERATION     1


 AVERAGE FORCE                       94.1       TIME AVG. FORCE        106.    
 LARGEST SCALED RESIDUAL FORCE      -1.48       AT NODE          1   DOF  1
   INSTANCE: CUBE_ASSEMBLY                                                                   
  CORRESPONDING RESIDUAL FORCE      -1.48    
 LARGEST INCREMENT OF DISP.         1.000E-05   AT NODE          1   DOF  2
   INSTANCE: CUBE_ASSEMBLY                                                                   
 LARGEST CORRECTION TO DISP.        1.527E-07   AT NODE          5   DOF  3
   INSTANCE: CUBE_ASSEMBLY                                                                   
          FORCE     EQUILIBRIUM NOT ACHIEVED WITHIN TOLERANCE.
 
	SYMMETRIC NEW DIRECT SPARSE SOLVER RUNNING ON
 	1 HOST x 1 MPI RANK PER HOST x 1 THREAD PER RANK
        NUMBER OF EQUATIONS:  24
        NUMBER OF RHS:        1
        NUMBER OF FLOPS:      4.900e+03
        SOLVER ELAPSED TIME:  0ms

               CONVERGENCE CHECKS FOR EQUILIBRIUM ITERATION     2


 AVERAGE FORCE                       92.7       TIME AVG. FORCE        106.    
 LARGEST SCALED RESIDUAL FORCE      0.264       AT NODE          1   DOF  1
   INSTANCE: CUBE_ASSEMBLY                                                                   
  CORRESPONDING RESIDUAL FORCE      0.264    
 LARGEST INCREMENT OF DISP.         1.000E-05   AT NODE          1   DOF  2
   INSTANCE: CUBE_ASSEMBLY                                                                   
 LARGEST CORRECTION TO DISP.       -2.748E-08   AT NODE          1   DOF  1
   INSTANCE: CUBE_ASSEMBLY                                                                   
          THE FORCE     EQUILIBRIUM EQUATIONS HAVE CONVERGED

 ITERATION SUMMARY FOR THE INCREMENT:   2 TOTAL ITERATIONS, OF WHICH
   0 ARE SEVERE DISCONTINUITY ITERATIONS AND  2 ARE EQUILIBRIUM ITERATIONS.

 TIME INCREMENT COMPLETED   1.00    ,  FRACTION OF STEP COMPLETED  0.250    
 STEP TIME COMPLETED        25.0    ,  TOTAL TIME COMPLETED         25.0    


  INCREMENT    26 STARTS. ATTEMPT NUMBER  1, TIME INCREMENT   1.00    
 
	SYMMETRIC NEW DIRECT SPARSE SOLVER RUNNING ON
 	1 HOST x 1 MPI RANK PER HOST x 1 THREAD PER RANK
        NUMBER OF EQUATIONS:  24
        NUMBER OF RHS:        1
        NUMBER OF FLOPS:      4.900e+03
        SOLVER ELAPSED TIME:  0ms

               CONVERGENCE CHECKS FOR EQUILIBRIUM ITERATION     1


 AVERAGE FORCE                       93.1       TIME AVG. FORCE        106.    
 LARGEST SCALED RESIDUAL FORCE      -1.48       AT NODE          1   DOF  1
   INSTANCE: CUBE_ASSEMBLY                                                                   
  CORRESPONDING RESIDUAL FORCE      -1.48    
 LARGEST INCREMENT OF DISP.         1.000E-05   AT NODE          1   DOF  2
   INSTANCE: CUBE_ASSEMBLY                                                                   
 LARGEST CORRECTION TO DISP.        1.476E-07   AT NODE          5   DOF  3
   INSTANCE: CUBE_ASSEMBLY                                                                   
          FORCE     EQUILIBRIUM NOT ACHIEVED WITHIN TOLERANCE.
 
	SYMMETRIC NEW DIRECT SPARSE SOLVER RUNNING ON
 	1 HOST x 1 MPI RANK PER HOST x 1 THREAD PER RANK
        NUMBER OF EQUATIONS:  24
        NUMBER OF RHS:        1
        NUMBER OF FLOPS:      4.900e+03
        SOLVER ELAPSED TIME:  0ms

               CONVERGENCE CHECKS FOR EQUILIBRIUM ITERATION     2


 AVERAGE FORCE                       91.6       TIME AVG. FORCE        106.    
 LARGEST SCALED RESIDUAL FORCE      0.273       AT NODE          1   DOF  1
   INSTANCE: CUBE_ASSEMBLY                                                                   
  CORRESPONDING RESIDUAL FORCE      0.273    
 LARGEST INCREMENT OF DISP.         1.000E-05   AT NODE          1   DOF  2
   INSTANCE: CUBE_ASSEMBLY                                                                   
 LARGEST CORRECTION TO DISP.       -2.724E-08   AT NODE          1   DOF  1
   INSTANCE: CUBE_ASSEMBLY                                                                   
          THE FORCE     EQUILIBRIUM EQUATIONS HAVE CONVERGED

 ITERATION SUMMARY FOR THE INCREMENT:   2 TOTAL ITERATIONS, OF WHICH
   0 ARE SEVERE DISCONTINUITY ITERATIONS AND  2 ARE EQUILIBRIUM ITERATIONS.

 TIME INCREMENT COMPLETED   1.00    ,  FRACTION OF STEP COMPLETED  0.260    
 STEP TIME COMPLETED        26.0    ,  TOTAL TIME COMPLETED         26.0    


  INCREMENT    27 STARTS. ATTEMPT NUMBER  1, TIME INCREMENT   1.00    
 
	SYMMETRIC NEW DIRECT SPARSE SOLVER RUNNING ON
 	1 HOST x 1 MPI RANK PER HOST x 1 THREAD PER RANK
        NUMBER OF EQUATIONS:  24
        NUMBER OF RHS:        1
        NUMBER OF FLOPS:      4.900e+03
        SOLVER ELAPSED TIME:  0ms

               CONVERGENCE CHECKS FOR EQUILIBRIUM ITERATION     1


 AVERAGE FORCE                       92.0       TIME AVG. FORCE        105.    
 LARGEST SCALED RESIDUAL FORCE      -1.48       AT NODE          1   DOF  1
   INSTANCE: CUBE_ASSEMBLY                                                                   
  CORRESPONDING RESIDUAL FORCE      -1.48    
 LARGEST INCREMENT OF DISP.         1.000E-05   AT NODE          1   DOF  2
   INSTANCE: CUBE_ASSEMBLY                                                                   
 LARGEST CORRECTION TO DISP.        1.428E-07   AT NODE          5   DOF  3
   INSTANCE: CUBE_ASSEMBLY                                                                   
          FORCE     EQUILIBRIUM NOT ACHIEVED WITHIN TOLERANCE.
 
	SYMMETRIC NEW DIRECT SPARSE SOLVER RUNNING ON
 	1 HOST x 1 MPI RANK PER HOST x 1 THREAD PER RANK
        NUMBER OF EQUATIONS:  24
        NUMBER OF RHS:        1
        NUMBER OF FLOPS:      4.900e+03
        SOLVER ELAPSED TIME:  0ms

               CONVERGENCE CHECKS FOR EQUILIBRIUM ITERATION     2


 AVERAGE FORCE                       90.5       TIME AVG. FORCE        105.    
 LARGEST SCALED RESIDUAL FORCE      0.281       AT NODE          1   DOF  1
   INSTANCE: CUBE_ASSEMBLY                                                                   
  CORRESPONDING RESIDUAL FORCE      0.281    
 LARGEST INCREMENT OF DISP.         1.000E-05   AT NODE          1   DOF  2
   INSTANCE: CUBE_ASSEMBLY                                                                   
 LARGEST CORRECTION TO DISP.       -2.697E-08   AT NODE          1   DOF  1
   INSTANCE: CUBE_ASSEMBLY                                                                   
          THE FORCE     EQUILIBRIUM EQUATIONS HAVE CONVERGED

 ITERATION SUMMARY FOR THE INCREMENT:   2 TOTAL ITERATIONS, OF WHICH
   0 ARE SEVERE DISCONTINUITY ITERATIONS AND  2 ARE EQUILIBRIUM ITERATIONS.

 TIME INCREMENT COMPLETED   1.00    ,  FRACTION OF STEP COMPLETED  0.270    
 STEP TIME COMPLETED        27.0    ,  TOTAL TIME COMPLETED         27.0    


  INCREMENT    28 STARTS. ATTEMPT NUMBER  1, TIME INCREMENT   1.00    
 
	SYMMETRIC NEW DIRECT SPARSE SOLVER RUNNING ON
 	1 HOST x 1 MPI RANK PER HOST x 1 THREAD PER RANK
        NUMBER OF EQUATIONS:  24
        NUMBER OF RHS:        1
        NUMBER OF FLOPS:      4.900e+03
        SOLVER ELAPSED TIME:  0ms

               CONVERGENCE CHECKS FOR EQUILIBRIUM ITERATION     1


 AVERAGE FORCE                       91.0       TIME AVG. FORCE        105.    
 LARGEST SCALED RESIDUAL FORCE      -1.49       AT NODE          1   DOF  1
   INSTANCE: CUBE_ASSEMBLY                                                                   
  CORRESPONDING RESIDUAL FORCE      -1.49    
 LARGEST INCREMENT OF DISP.         1.000E-05   AT NODE          1   DOF  2
   INSTANCE: CUBE_ASSEMBLY                                                                   
 LARGEST CORRECTION TO DISP.        1.382E-07   AT NODE          5   DOF  3
   INSTANCE: CUBE_ASSEMBLY                                                                   
          FORCE     EQUILIBRIUM NOT ACHIEVED WITHIN TOLERANCE.
 
	SYMMETRIC NEW DIRECT SPARSE SOLVER RUNNING ON
 	1 HOST x 1 MPI RANK PER HOST x 1 THREAD PER RANK
        NUMBER OF EQUATIONS:  24
        NUMBER OF RHS:        1
        NUMBER OF FLOPS:      4.900e+03
        SOLVER ELAPSED TIME:  0ms

               CONVERGENCE CHECKS FOR EQUILIBRIUM ITERATION     2


 AVERAGE FORCE                       89.5       TIME AVG. FORCE        104.    
 LARGEST SCALED RESIDUAL FORCE      0.289       AT NODE          1   DOF  1
   INSTANCE: CUBE_ASSEMBLY                                                                   
  CORRESPONDING RESIDUAL FORCE      0.289    
 LARGEST INCREMENT OF DISP.         1.000E-05   AT NODE          1   DOF  2
   INSTANCE: CUBE_ASSEMBLY                                                                   
 LARGEST CORRECTION TO DISP.       -2.670E-08   AT NODE          1   DOF  1
   INSTANCE: CUBE_ASSEMBLY                                                                   
          THE FORCE     EQUILIBRIUM EQUATIONS HAVE CONVERGED

 ITERATION SUMMARY FOR THE INCREMENT:   2 TOTAL ITERATIONS, OF WHICH
   0 ARE SEVERE DISCONTINUITY ITERATIONS AND  2 ARE EQUILIBRIUM ITERATIONS.

 TIME INCREMENT COMPLETED   1.00    ,  FRACTION OF STEP COMPLETED  0.280    
 STEP TIME COMPLETED        28.0    ,  TOTAL TIME COMPLETED         28.0    


  INCREMENT    29 STARTS. ATTEMPT NUMBER  1, TIME INCREMENT   1.00    
 
	SYMMETRIC NEW DIRECT SPARSE SOLVER RUNNING ON
 	1 HOST x 1 MPI RANK PER HOST x 1 THREAD PER RANK
        NUMBER OF EQUATIONS:  24
        NUMBER OF RHS:        1
        NUMBER OF FLOPS:      4.900e+03
        SOLVER ELAPSED TIME:  0ms

               CONVERGENCE CHECKS FOR EQUILIBRIUM ITERATION     1


 AVERAGE FORCE                       90.0       TIME AVG. FORCE        104.    
 LARGEST SCALED RESIDUAL FORCE      -1.48       AT NODE          1   DOF  1
   INSTANCE: CUBE_ASSEMBLY                                                                   
  CORRESPONDING RESIDUAL FORCE      -1.48    
 LARGEST INCREMENT OF DISP.         1.000E-05   AT NODE          1   DOF  2
   INSTANCE: CUBE_ASSEMBLY                                                                   
 LARGEST CORRECTION TO DISP.        1.338E-07   AT NODE          5   DOF  3
   INSTANCE: CUBE_ASSEMBLY                                                                   
          FORCE     EQUILIBRIUM NOT ACHIEVED WITHIN TOLERANCE.
 
	SYMMETRIC NEW DIRECT SPARSE SOLVER RUNNING ON
 	1 HOST x 1 MPI RANK PER HOST x 1 THREAD PER RANK
        NUMBER OF EQUATIONS:  24
        NUMBER OF RHS:        1
        NUMBER OF FLOPS:      4.900e+03
        SOLVER ELAPSED TIME:  1ms

               CONVERGENCE CHECKS FOR EQUILIBRIUM ITERATION     2


 AVERAGE FORCE                       88.5       TIME AVG. FORCE        104.    
 LARGEST SCALED RESIDUAL FORCE      0.297       AT NODE          1   DOF  1
   INSTANCE: CUBE_ASSEMBLY                                                                   
  CORRESPONDING RESIDUAL FORCE      0.297    
 LARGEST INCREMENT OF DISP.         1.000E-05   AT NODE          1   DOF  2
   INSTANCE: CUBE_ASSEMBLY                                                                   
 LARGEST CORRECTION TO DISP.       -2.642E-08   AT NODE          1   DOF  1
   INSTANCE: CUBE_ASSEMBLY                                                                   
          THE FORCE     EQUILIBRIUM EQUATIONS HAVE CONVERGED

 ITERATION SUMMARY FOR THE INCREMENT:   2 TOTAL ITERATIONS, OF WHICH
   0 ARE SEVERE DISCONTINUITY ITERATIONS AND  2 ARE EQUILIBRIUM ITERATIONS.

 TIME INCREMENT COMPLETED   1.00    ,  FRACTION OF STEP COMPLETED  0.290    
 STEP TIME COMPLETED        29.0    ,  TOTAL TIME COMPLETED         29.0    


  INCREMENT    30 STARTS. ATTEMPT NUMBER  1, TIME INCREMENT   1.00    
 
	SYMMETRIC NEW DIRECT SPARSE SOLVER RUNNING ON
 	1 HOST x 1 MPI RANK PER HOST x 1 THREAD PER RANK
        NUMBER OF EQUATIONS:  24
        NUMBER OF RHS:        1
        NUMBER OF FLOPS:      4.900e+03
        SOLVER ELAPSED TIME:  0ms

               CONVERGENCE CHECKS FOR EQUILIBRIUM ITERATION     1


 AVERAGE FORCE                       89.1       TIME AVG. FORCE        103.    
 LARGEST SCALED RESIDUAL FORCE      -1.48       AT NODE          1   DOF  1
   INSTANCE: CUBE_ASSEMBLY                                                                   
  CORRESPONDING RESIDUAL FORCE      -1.48    
 LARGEST INCREMENT OF DISP.         1.000E-05   AT NODE          1   DOF  2
   INSTANCE: CUBE_ASSEMBLY                                                                   
 LARGEST CORRECTION TO DISP.        1.295E-07   AT NODE          5   DOF  3
   INSTANCE: CUBE_ASSEMBLY                                                                   
          FORCE     EQUILIBRIUM NOT ACHIEVED WITHIN TOLERANCE.
 
	SYMMETRIC NEW DIRECT SPARSE SOLVER RUNNING ON
 	1 HOST x 1 MPI RANK PER HOST x 1 THREAD PER RANK
        NUMBER OF EQUATIONS:  24
        NUMBER OF RHS:        1
        NUMBER OF FLOPS:      4.900e+03
        SOLVER ELAPSED TIME:  0ms

               CONVERGENCE CHECKS FOR EQUILIBRIUM ITERATION     2


 AVERAGE FORCE                       87.6       TIME AVG. FORCE        103.    
 LARGEST SCALED RESIDUAL FORCE      0.305       AT NODE          1   DOF  1
   INSTANCE: CUBE_ASSEMBLY                                                                   
  CORRESPONDING RESIDUAL FORCE      0.305    
 LARGEST INCREMENT OF DISP.         1.000E-05   AT NODE          1   DOF  2
   INSTANCE: CUBE_ASSEMBLY                                                                   
 LARGEST CORRECTION TO DISP.       -2.615E-08   AT NODE          1   DOF  1
   INSTANCE: CUBE_ASSEMBLY                                                                   
          THE FORCE     EQUILIBRIUM EQUATIONS HAVE CONVERGED

 ITERATION SUMMARY FOR THE INCREMENT:   2 TOTAL ITERATIONS, OF WHICH
   0 ARE SEVERE DISCONTINUITY ITERATIONS AND  2 ARE EQUILIBRIUM ITERATIONS.

 TIME INCREMENT COMPLETED   1.00    ,  FRACTION OF STEP COMPLETED  0.300    
 STEP TIME COMPLETED        30.0    ,  TOTAL TIME COMPLETED         30.0    


  INCREMENT    31 STARTS. ATTEMPT NUMBER  1, TIME INCREMENT   1.00    
 
	SYMMETRIC NEW DIRECT SPARSE SOLVER RUNNING ON
 	1 HOST x 1 MPI RANK PER HOST x 1 THREAD PER RANK
        NUMBER OF EQUATIONS:  24
        NUMBER OF RHS:        1
        NUMBER OF FLOPS:      4.900e+03
        SOLVER ELAPSED TIME:  0ms

               CONVERGENCE CHECKS FOR EQUILIBRIUM ITERATION     1


 AVERAGE FORCE                       88.1       TIME AVG. FORCE        103.    
 LARGEST SCALED RESIDUAL FORCE      -1.48       AT NODE          1   DOF  1
   INSTANCE: CUBE_ASSEMBLY                                                                   
  CORRESPONDING RESIDUAL FORCE      -1.48    
 LARGEST INCREMENT OF DISP.         1.000E-05   AT NODE          1   DOF  2
   INSTANCE: CUBE_ASSEMBLY                                                                   
 LARGEST CORRECTION TO DISP.        1.255E-07   AT NODE          5   DOF  3
   INSTANCE: CUBE_ASSEMBLY                                                                   
          FORCE     EQUILIBRIUM NOT ACHIEVED WITHIN TOLERANCE.
 
	SYMMETRIC NEW DIRECT SPARSE SOLVER RUNNING ON
 	1 HOST x 1 MPI RANK PER HOST x 1 THREAD PER RANK
        NUMBER OF EQUATIONS:  24
        NUMBER OF RHS:        1
        NUMBER OF FLOPS:      4.900e+03
        SOLVER ELAPSED TIME:  0ms

               CONVERGENCE CHECKS FOR EQUILIBRIUM ITERATION     2


 AVERAGE FORCE                       86.6       TIME AVG. FORCE        103.    
 LARGEST SCALED RESIDUAL FORCE      0.312       AT NODE          1   DOF  1
   INSTANCE: CUBE_ASSEMBLY                                                                   
  CORRESPONDING RESIDUAL FORCE      0.312    
 LARGEST INCREMENT OF DISP.         1.000E-05   AT NODE          1   DOF  2
   INSTANCE: CUBE_ASSEMBLY                                                                   
 LARGEST CORRECTION TO DISP.       -2.586E-08   AT NODE          1   DOF  1
   INSTANCE: CUBE_ASSEMBLY                                                                   
          THE FORCE     EQUILIBRIUM EQUATIONS HAVE CONVERGED

 ITERATION SUMMARY FOR THE INCREMENT:   2 TOTAL ITERATIONS, OF WHICH
   0 ARE SEVERE DISCONTINUITY ITERATIONS AND  2 ARE EQUILIBRIUM ITERATIONS.

 TIME INCREMENT COMPLETED   1.00    ,  FRACTION OF STEP COMPLETED  0.310    
 STEP TIME COMPLETED        31.0    ,  TOTAL TIME COMPLETED         31.0    


  INCREMENT    32 STARTS. ATTEMPT NUMBER  1, TIME INCREMENT   1.00    
 
	SYMMETRIC NEW DIRECT SPARSE SOLVER RUNNING ON
 	1 HOST x 1 MPI RANK PER HOST x 1 THREAD PER RANK
        NUMBER OF EQUATIONS:  24
        NUMBER OF RHS:        1
        NUMBER OF FLOPS:      4.900e+03
        SOLVER ELAPSED TIME:  1ms

               CONVERGENCE CHECKS FOR EQUILIBRIUM ITERATION     1


 AVERAGE FORCE                       87.2       TIME AVG. FORCE        102.    
 LARGEST SCALED RESIDUAL FORCE      -1.48       AT NODE          1   DOF  1
   INSTANCE: CUBE_ASSEMBLY                                                                   
  CORRESPONDING RESIDUAL FORCE      -1.48    
 LARGEST INCREMENT OF DISP.         1.000E-05   AT NODE          1   DOF  2
   INSTANCE: CUBE_ASSEMBLY                                                                   
 LARGEST CORRECTION TO DISP.        1.216E-07   AT NODE          5   DOF  3
   INSTANCE: CUBE_ASSEMBLY                                                                   
          FORCE     EQUILIBRIUM NOT ACHIEVED WITHIN TOLERANCE.
 
	SYMMETRIC NEW DIRECT SPARSE SOLVER RUNNING ON
 	1 HOST x 1 MPI RANK PER HOST x 1 THREAD PER RANK
        NUMBER OF EQUATIONS:  24
        NUMBER OF RHS:        1
        NUMBER OF FLOPS:      4.900e+03
        SOLVER ELAPSED TIME:  0ms

               CONVERGENCE CHECKS FOR EQUILIBRIUM ITERATION     2


 AVERAGE FORCE                       85.7       TIME AVG. FORCE        102.    
 LARGEST SCALED RESIDUAL FORCE      0.319       AT NODE          1   DOF  1
   INSTANCE: CUBE_ASSEMBLY                                                                   
[...]
          FORCE     EQUILIBRIUM NOT ACHIEVED WITHIN TOLERANCE.
 
	SYMMETRIC NEW DIRECT SPARSE SOLVER RUNNING ON
 	1 HOST x 1 MPI RANK PER HOST x 1 THREAD PER RANK
        NUMBER OF EQUATIONS:  24
        NUMBER OF RHS:        1
        NUMBER OF FLOPS:      4.900e+03
        SOLVER ELAPSED TIME:  0ms

               CONVERGENCE CHECKS FOR EQUILIBRIUM ITERATION     2


 AVERAGE FORCE                       72.0       TIME AVG. FORCE        83.6    
 LARGEST SCALED RESIDUAL FORCE      0.248       AT NODE          1   DOF  3
   INSTANCE: CUBE_ASSEMBLY                                                                   
  CORRESPONDING RESIDUAL FORCE      0.248    
 LARGEST INCREMENT OF DISP.         1.000E-05   AT NODE          1   DOF  2
   INSTANCE: CUBE_ASSEMBLY                                                                   
 LARGEST CORRECTION TO DISP.       -6.591E-09   AT NODE          1   DOF  3
   INSTANCE: CUBE_ASSEMBLY                                                                   
          THE FORCE     EQUILIBRIUM EQUATIONS HAVE CONVERGED

 ITERATION SUMMARY FOR THE INCREMENT:   2 TOTAL ITERATIONS, OF WHICH
   0 ARE SEVERE DISCONTINUITY ITERATIONS AND  2 ARE EQUILIBRIUM ITERATIONS.

 TIME INCREMENT COMPLETED   1.00    ,  FRACTION OF STEP COMPLETED  0.940    
 STEP TIME COMPLETED        94.0    ,  TOTAL TIME COMPLETED         94.0    


  INCREMENT    95 STARTS. ATTEMPT NUMBER  1, TIME INCREMENT   1.00    
 
	SYMMETRIC NEW DIRECT SPARSE SOLVER RUNNING ON
 	1 HOST x 1 MPI RANK PER HOST x 1 THREAD PER RANK
        NUMBER OF EQUATIONS:  24
        NUMBER OF RHS:        1
        NUMBER OF FLOPS:      4.900e+03
        SOLVER ELAPSED TIME:  0ms

               CONVERGENCE CHECKS FOR EQUILIBRIUM ITERATION     1


 AVERAGE FORCE                       71.6       TIME AVG. FORCE        83.5    
 LARGEST SCALED RESIDUAL FORCE      -1.23       AT NODE          1   DOF  1
   INSTANCE: CUBE_ASSEMBLY                                                                   
  CORRESPONDING RESIDUAL FORCE      -1.23    
 LARGEST INCREMENT OF DISP.         1.000E-05   AT NODE          1   DOF  2
   INSTANCE: CUBE_ASSEMBLY                                                                   
 LARGEST CORRECTION TO DISP.        3.230E-08   AT NODE          1   DOF  3
   INSTANCE: CUBE_ASSEMBLY                                                                   
          FORCE     EQUILIBRIUM NOT ACHIEVED WITHIN TOLERANCE.
 
	SYMMETRIC NEW DIRECT SPARSE SOLVER RUNNING ON
 	1 HOST x 1 MPI RANK PER HOST x 1 THREAD PER RANK
        NUMBER OF EQUATIONS:  24
        NUMBER OF RHS:        1
        NUMBER OF FLOPS:      4.900e+03
        SOLVER ELAPSED TIME:  0ms

               CONVERGENCE CHECKS FOR EQUILIBRIUM ITERATION     2


 AVERAGE FORCE                       72.2       TIME AVG. FORCE        83.5    
 LARGEST SCALED RESIDUAL FORCE      0.585       AT NODE          3   DOF  1
   INSTANCE: CUBE_ASSEMBLY                                                                   
  CORRESPONDING RESIDUAL FORCE      0.585    
 LARGEST INCREMENT OF DISP.         1.000E-05   AT NODE          1   DOF  2
   INSTANCE: CUBE_ASSEMBLY                                                                   
 LARGEST CORRECTION TO DISP.       -1.543E-08   AT NODE          3   DOF  1
   INSTANCE: CUBE_ASSEMBLY                                                                   
          FORCE     EQUILIBRIUM NOT ACHIEVED WITHIN TOLERANCE.
 
	SYMMETRIC NEW DIRECT SPARSE SOLVER RUNNING ON
 	1 HOST x 1 MPI RANK PER HOST x 1 THREAD PER RANK
        NUMBER OF EQUATIONS:  24
        NUMBER OF RHS:        1
        NUMBER OF FLOPS:      4.900e+03
        SOLVER ELAPSED TIME:  0ms

               CONVERGENCE CHECKS FOR EQUILIBRIUM ITERATION     3


 AVERAGE FORCE                       71.8       TIME AVG. FORCE        83.5    
 LARGEST SCALED RESIDUAL FORCE     -0.282       AT NODE          3   DOF  1
   INSTANCE: CUBE_ASSEMBLY                                                                   
  CORRESPONDING RESIDUAL FORCE     -0.282    
 LARGEST INCREMENT OF DISP.         1.000E-05   AT NODE          1   DOF  2
   INSTANCE: CUBE_ASSEMBLY                                                                   
 LARGEST CORRECTION TO DISP.        7.436E-09   AT NODE          3   DOF  1
   INSTANCE: CUBE_ASSEMBLY                                                                   
          THE FORCE     EQUILIBRIUM EQUATIONS HAVE CONVERGED

 ITERATION SUMMARY FOR THE INCREMENT:   3 TOTAL ITERATIONS, OF WHICH
   0 ARE SEVERE DISCONTINUITY ITERATIONS AND  3 ARE EQUILIBRIUM ITERATIONS.

 TIME INCREMENT COMPLETED   1.00    ,  FRACTION OF STEP COMPLETED  0.950    
 STEP TIME COMPLETED        95.0    ,  TOTAL TIME COMPLETED         95.0    


  INCREMENT    96 STARTS. ATTEMPT NUMBER  1, TIME INCREMENT   1.00    
 
	SYMMETRIC NEW DIRECT SPARSE SOLVER RUNNING ON
 	1 HOST x 1 MPI RANK PER HOST x 1 THREAD PER RANK
        NUMBER OF EQUATIONS:  24
        NUMBER OF RHS:        1
        NUMBER OF FLOPS:      4.900e+03
        SOLVER ELAPSED TIME:  0ms

               CONVERGENCE CHECKS FOR EQUILIBRIUM ITERATION     1


 AVERAGE FORCE                       71.8       TIME AVG. FORCE        83.3    
 LARGEST SCALED RESIDUAL FORCE     -0.506       AT NODE          1   DOF  3
   INSTANCE: CUBE_ASSEMBLY                                                                   
  CORRESPONDING RESIDUAL FORCE     -0.506    
 LARGEST INCREMENT OF DISP.         1.000E-05   AT NODE          1   DOF  2
   INSTANCE: CUBE_ASSEMBLY                                                                   
 LARGEST CORRECTION TO DISP.        1.316E-08   AT NODE          1   DOF  3
   INSTANCE: CUBE_ASSEMBLY                                                                   
          FORCE     EQUILIBRIUM NOT ACHIEVED WITHIN TOLERANCE.
 
	SYMMETRIC NEW DIRECT SPARSE SOLVER RUNNING ON
 	1 HOST x 1 MPI RANK PER HOST x 1 THREAD PER RANK
        NUMBER OF EQUATIONS:  24
        NUMBER OF RHS:        1
        NUMBER OF FLOPS:      4.900e+03
        SOLVER ELAPSED TIME:  0ms

               CONVERGENCE CHECKS FOR EQUILIBRIUM ITERATION     2


 AVERAGE FORCE                       72.0       TIME AVG. FORCE        83.3    
 LARGEST SCALED RESIDUAL FORCE      0.242       AT NODE          1   DOF  3
   INSTANCE: CUBE_ASSEMBLY                                                                   
  CORRESPONDING RESIDUAL FORCE      0.242    
 LARGEST INCREMENT OF DISP.         1.000E-05   AT NODE          1   DOF  2
   INSTANCE: CUBE_ASSEMBLY                                                                   
 LARGEST CORRECTION TO DISP.       -6.299E-09   AT NODE          1   DOF  3
   INSTANCE: CUBE_ASSEMBLY                                                                   
          THE FORCE     EQUILIBRIUM EQUATIONS HAVE CONVERGED

 ITERATION SUMMARY FOR THE INCREMENT:   2 TOTAL ITERATIONS, OF WHICH
   0 ARE SEVERE DISCONTINUITY ITERATIONS AND  2 ARE EQUILIBRIUM ITERATIONS.

 TIME INCREMENT COMPLETED   1.00    ,  FRACTION OF STEP COMPLETED  0.960    
 STEP TIME COMPLETED        96.0    ,  TOTAL TIME COMPLETED         96.0    


  INCREMENT    97 STARTS. ATTEMPT NUMBER  1, TIME INCREMENT   1.00    
 
	SYMMETRIC NEW DIRECT SPARSE SOLVER RUNNING ON
 	1 HOST x 1 MPI RANK PER HOST x 1 THREAD PER RANK
        NUMBER OF EQUATIONS:  24
        NUMBER OF RHS:        1
        NUMBER OF FLOPS:      4.900e+03
        SOLVER ELAPSED TIME:  0ms

               CONVERGENCE CHECKS FOR EQUILIBRIUM ITERATION     1


 AVERAGE FORCE                       71.6       TIME AVG. FORCE        83.2    
 LARGEST SCALED RESIDUAL FORCE      -1.22       AT NODE          1   DOF  1
   INSTANCE: CUBE_ASSEMBLY                                                                   
  CORRESPONDING RESIDUAL FORCE      -1.22    
 LARGEST INCREMENT OF DISP.         1.000E-05   AT NODE          1   DOF  2
   INSTANCE: CUBE_ASSEMBLY                                                                   
 LARGEST CORRECTION TO DISP.        3.130E-08   AT NODE          1   DOF  3
   INSTANCE: CUBE_ASSEMBLY                                                                   
          FORCE     EQUILIBRIUM NOT ACHIEVED WITHIN TOLERANCE.
 
	SYMMETRIC NEW DIRECT SPARSE SOLVER RUNNING ON
 	1 HOST x 1 MPI RANK PER HOST x 1 THREAD PER RANK
        NUMBER OF EQUATIONS:  24
        NUMBER OF RHS:        1
        NUMBER OF FLOPS:      4.900e+03
        SOLVER ELAPSED TIME:  0ms

               CONVERGENCE CHECKS FOR EQUILIBRIUM ITERATION     2


 AVERAGE FORCE                       72.2       TIME AVG. FORCE        83.2    
 LARGEST SCALED RESIDUAL FORCE      0.585       AT NODE          3   DOF  1
   INSTANCE: CUBE_ASSEMBLY                                                                   
  CORRESPONDING RESIDUAL FORCE      0.585    
 LARGEST INCREMENT OF DISP.         1.000E-05   AT NODE          1   DOF  2
   INSTANCE: CUBE_ASSEMBLY                                                                   
 LARGEST CORRECTION TO DISP.       -1.508E-08   AT NODE          5   DOF  3
   INSTANCE: CUBE_ASSEMBLY                                                                   
          FORCE     EQUILIBRIUM NOT ACHIEVED WITHIN TOLERANCE.
 
	SYMMETRIC NEW DIRECT SPARSE SOLVER RUNNING ON
 	1 HOST x 1 MPI RANK PER HOST x 1 THREAD PER RANK
        NUMBER OF EQUATIONS:  24
        NUMBER OF RHS:        1
        NUMBER OF FLOPS:      4.900e+03
        SOLVER ELAPSED TIME:  0ms

               CONVERGENCE CHECKS FOR EQUILIBRIUM ITERATION     3


 AVERAGE FORCE                       71.8       TIME AVG. FORCE        83.2    
 LARGEST SCALED RESIDUAL FORCE     -0.286       AT NODE          3   DOF  1
   INSTANCE: CUBE_ASSEMBLY                                                                   
  CORRESPONDING RESIDUAL FORCE     -0.286    
 LARGEST INCREMENT OF DISP.         1.000E-05   AT NODE          1   DOF  2
   INSTANCE: CUBE_ASSEMBLY                                                                   
 LARGEST CORRECTION TO DISP.        7.353E-09   AT NODE          3   DOF  1
   INSTANCE: CUBE_ASSEMBLY                                                                   
          THE FORCE     EQUILIBRIUM EQUATIONS HAVE CONVERGED

 ITERATION SUMMARY FOR THE INCREMENT:   3 TOTAL ITERATIONS, OF WHICH
   0 ARE SEVERE DISCONTINUITY ITERATIONS AND  3 ARE EQUILIBRIUM ITERATIONS.

 TIME INCREMENT COMPLETED   1.00    ,  FRACTION OF STEP COMPLETED  0.970    
 STEP TIME COMPLETED        97.0    ,  TOTAL TIME COMPLETED         97.0    


  INCREMENT    98 STARTS. ATTEMPT NUMBER  1, TIME INCREMENT   1.00    
 
	SYMMETRIC NEW DIRECT SPARSE SOLVER RUNNING ON
 	1 HOST x 1 MPI RANK PER HOST x 1 THREAD PER RANK
        NUMBER OF EQUATIONS:  24
        NUMBER OF RHS:        1
        NUMBER OF FLOPS:      4.900e+03
        SOLVER ELAPSED TIME:  0ms

               CONVERGENCE CHECKS FOR EQUILIBRIUM ITERATION     1


 AVERAGE FORCE                       71.8       TIME AVG. FORCE        83.1    
 LARGEST SCALED RESIDUAL FORCE     -0.485       AT NODE          1   DOF  3
   INSTANCE: CUBE_ASSEMBLY                                                                   
  CORRESPONDING RESIDUAL FORCE     -0.485    
 LARGEST INCREMENT OF DISP.         1.000E-05   AT NODE          1   DOF  2
   INSTANCE: CUBE_ASSEMBLY                                                                   
 LARGEST CORRECTION TO DISP.        1.232E-08   AT NODE          1   DOF  3
   INSTANCE: CUBE_ASSEMBLY                                                                   
          FORCE     EQUILIBRIUM NOT ACHIEVED WITHIN TOLERANCE.
 
	SYMMETRIC NEW DIRECT SPARSE SOLVER RUNNING ON
 	1 HOST x 1 MPI RANK PER HOST x 1 THREAD PER RANK
        NUMBER OF EQUATIONS:  24
        NUMBER OF RHS:        1
        NUMBER OF FLOPS:      4.900e+03
        SOLVER ELAPSED TIME:  0ms

               CONVERGENCE CHECKS FOR EQUILIBRIUM ITERATION     2


 AVERAGE FORCE                       72.0       TIME AVG. FORCE        83.1    
 LARGEST SCALED RESIDUAL FORCE      0.235       AT NODE          1   DOF  3
   INSTANCE: CUBE_ASSEMBLY                                                                   
  CORRESPONDING RESIDUAL FORCE      0.235    
 LARGEST INCREMENT OF DISP.         1.000E-05   AT NODE          1   DOF  2
   INSTANCE: CUBE_ASSEMBLY                                                                   
 LARGEST CORRECTION TO DISP.       -5.970E-09   AT NODE          1   DOF  3
   INSTANCE: CUBE_ASSEMBLY                                                                   
          THE FORCE     EQUILIBRIUM EQUATIONS HAVE CONVERGED

 ITERATION SUMMARY FOR THE INCREMENT:   2 TOTAL ITERATIONS, OF WHICH
   0 ARE SEVERE DISCONTINUITY ITERATIONS AND  2 ARE EQUILIBRIUM ITERATIONS.

 TIME INCREMENT COMPLETED   1.00    ,  FRACTION OF STEP COMPLETED  0.980    
 STEP TIME COMPLETED        98.0    ,  TOTAL TIME COMPLETED         98.0    


  INCREMENT    99 STARTS. ATTEMPT NUMBER  1, TIME INCREMENT   1.00    
 
	SYMMETRIC NEW DIRECT SPARSE SOLVER RUNNING ON
 	1 HOST x 1 MPI RANK PER HOST x 1 THREAD PER RANK
        NUMBER OF EQUATIONS:  24
        NUMBER OF RHS:        1
        NUMBER OF FLOPS:      4.900e+03
        SOLVER ELAPSED TIME:  0ms

               CONVERGENCE CHECKS FOR EQUILIBRIUM ITERATION     1


 AVERAGE FORCE                       71.6       TIME AVG. FORCE        83.0    
 LARGEST SCALED RESIDUAL FORCE      -1.20       AT NODE          1   DOF  1
   INSTANCE: CUBE_ASSEMBLY                                                                   
  CORRESPONDING RESIDUAL FORCE      -1.20    
 LARGEST INCREMENT OF DISP.         1.000E-05   AT NODE          1   DOF  2
   INSTANCE: CUBE_ASSEMBLY                                                                   
 LARGEST CORRECTION TO DISP.        3.029E-08   AT NODE          1   DOF  3
   INSTANCE: CUBE_ASSEMBLY                                                                   
          FORCE     EQUILIBRIUM NOT ACHIEVED WITHIN TOLERANCE.
 
	SYMMETRIC NEW DIRECT SPARSE SOLVER RUNNING ON
 	1 HOST x 1 MPI RANK PER HOST x 1 THREAD PER RANK
        NUMBER OF EQUATIONS:  24
        NUMBER OF RHS:        1
        NUMBER OF FLOPS:      4.900e+03
        SOLVER ELAPSED TIME:  0ms

               CONVERGENCE CHECKS FOR EQUILIBRIUM ITERATION     2


 AVERAGE FORCE                       72.2       TIME AVG. FORCE        83.0    
 LARGEST SCALED RESIDUAL FORCE      0.586       AT NODE          3   DOF  1
   INSTANCE: CUBE_ASSEMBLY                                                                   
  CORRESPONDING RESIDUAL FORCE      0.586    
 LARGEST INCREMENT OF DISP.         1.000E-05   AT NODE          1   DOF  2
   INSTANCE: CUBE_ASSEMBLY                                                                   
 LARGEST CORRECTION TO DISP.       -1.479E-08   AT NODE          5   DOF  3
   INSTANCE: CUBE_ASSEMBLY                                                                   
          FORCE     EQUILIBRIUM NOT ACHIEVED WITHIN TOLERANCE.
 
	SYMMETRIC NEW DIRECT SPARSE SOLVER RUNNING ON
 	1 HOST x 1 MPI RANK PER HOST x 1 THREAD PER RANK
        NUMBER OF EQUATIONS:  24
        NUMBER OF RHS:        1
        NUMBER OF FLOPS:      4.900e+03
        SOLVER ELAPSED TIME:  0ms

               CONVERGENCE CHECKS FOR EQUILIBRIUM ITERATION     3


 AVERAGE FORCE                       71.8       TIME AVG. FORCE        83.0    
 LARGEST SCALED RESIDUAL FORCE     -0.290       AT NODE          3   DOF  1
   INSTANCE: CUBE_ASSEMBLY                                                                   
  CORRESPONDING RESIDUAL FORCE     -0.290    
 LARGEST INCREMENT OF DISP.         1.000E-05   AT NODE          1   DOF  2
   INSTANCE: CUBE_ASSEMBLY                                                                   
 LARGEST CORRECTION TO DISP.        7.310E-09   AT NODE          3   DOF  1
   INSTANCE: CUBE_ASSEMBLY                                                                   
          THE FORCE     EQUILIBRIUM EQUATIONS HAVE CONVERGED

 ITERATION SUMMARY FOR THE INCREMENT:   3 TOTAL ITERATIONS, OF WHICH
   0 ARE SEVERE DISCONTINUITY ITERATIONS AND  3 ARE EQUILIBRIUM ITERATIONS.

 TIME INCREMENT COMPLETED   1.00    ,  FRACTION OF STEP COMPLETED  0.990    
 STEP TIME COMPLETED        99.0    ,  TOTAL TIME COMPLETED         99.0    


  INCREMENT   100 STARTS. ATTEMPT NUMBER  1, TIME INCREMENT   1.00    
 
	SYMMETRIC NEW DIRECT SPARSE SOLVER RUNNING ON
 	1 HOST x 1 MPI RANK PER HOST x 1 THREAD PER RANK
        NUMBER OF EQUATIONS:  24
        NUMBER OF RHS:        1
        NUMBER OF FLOPS:      4.900e+03
        SOLVER ELAPSED TIME:  0ms

               CONVERGENCE CHECKS FOR EQUILIBRIUM ITERATION     1


 AVERAGE FORCE                       71.8       TIME AVG. FORCE        82.9    
 LARGEST SCALED RESIDUAL FORCE     -0.467       AT NODE          1   DOF  3
   INSTANCE: CUBE_ASSEMBLY                                                                   
  CORRESPONDING RESIDUAL FORCE     -0.467    
 LARGEST INCREMENT OF DISP.         1.000E-05   AT NODE          1   DOF  2
   INSTANCE: CUBE_ASSEMBLY                                                                   
 LARGEST CORRECTION TO DISP.        1.161E-08   AT NODE          1   DOF  3
   INSTANCE: CUBE_ASSEMBLY                                                                   
          FORCE     EQUILIBRIUM NOT ACHIEVED WITHIN TOLERANCE.
 
	SYMMETRIC NEW DIRECT SPARSE SOLVER RUNNING ON
 	1 HOST x 1 MPI RANK PER HOST x 1 THREAD PER RANK
        NUMBER OF EQUATIONS:  24
        NUMBER OF RHS:        1
        NUMBER OF FLOPS:      4.900e+03
        SOLVER ELAPSED TIME:  0ms

               CONVERGENCE CHECKS FOR EQUILIBRIUM ITERATION     2


 AVERAGE FORCE                       72.0       TIME AVG. FORCE        82.9    
 LARGEST SCALED RESIDUAL FORCE      0.230       AT NODE          1   DOF  3
   INSTANCE: CUBE_ASSEMBLY                                                                   
  CORRESPONDING RESIDUAL FORCE      0.230    
 LARGEST INCREMENT OF DISP.         1.000E-05   AT NODE          1   DOF  2
   INSTANCE: CUBE_ASSEMBLY                                                                   
 LARGEST CORRECTION TO DISP.       -5.718E-09   AT NODE          1   DOF  3
   INSTANCE: CUBE_ASSEMBLY                                                                   
          THE FORCE     EQUILIBRIUM EQUATIONS HAVE CONVERGED

 ITERATION SUMMARY FOR THE INCREMENT:   2 TOTAL ITERATIONS, OF WHICH
   0 ARE SEVERE DISCONTINUITY ITERATIONS AND  2 ARE EQUILIBRIUM ITERATIONS.

 TIME INCREMENT COMPLETED   1.00    ,  FRACTION OF STEP COMPLETED   1.00    
 STEP TIME COMPLETED        100.    ,  TOTAL TIME COMPLETED         100.    


          THE ANALYSIS HAS BEEN COMPLETED



     ANALYSIS SUMMARY:
     TOTAL OF        100  INCREMENTS
                       0  CUTBACKS IN AUTOMATIC INCREMENTATION
                     221  ITERATIONS INCLUDING CONTACT ITERATIONS IF PRESENT
                     221  PASSES THROUGH THE EQUATION SOLVER OF WHICH 
                     221  INVOLVE MATRIX DECOMPOSITION, INCLUDING
                       0  DECOMPOSITION(S) OF THE MASS MATRIX
                       1  REORDERING OF EQUATIONS TO MINIMIZE WAVEFRONT
                       0  ADDITIONAL RESIDUAL EVALUATIONS FOR LINE SEARCHES
                       0  ADDITIONAL OPERATOR EVALUATIONS FOR LINE SEARCHES
                       3  WARNING MESSAGES DURING USER INPUT PROCESSING
                       0  WARNING MESSAGES DURING ANALYSIS
                       0  ANALYSIS WARNINGS ARE NUMERICAL PROBLEM MESSAGES
                       0  ANALYSIS WARNINGS ARE NEGATIVE EIGENVALUE MESSAGES
                       0  ERROR MESSAGES



     JOB TIME SUMMARY
       USER TIME (SEC)      =     0.90    
       SYSTEM TIME (SEC)    =     0.60    
       TOTAL CPU TIME (SEC) =      1.5    
       WALLCLOCK TIME (SEC) =            4
       MEMORY PEAK (GB)     =            0
