*Heading
** Job name: UMAT_UMATHT_cube_C3D8T_transient_nlgeom_on_4NP Model name: UMAT_UMATHT_cube_C3D8T_transient_nlgeom_on_4NP
** Generated by: Abaqus/CAE 2023.HF4
*Preprint, echo=NO, model=NO, history=NO, contact=NO
**
** PARTS
**
*Part, name=cube
*Node
      1, 0.00100000005, 0.00100000005, 0.00100000005
      2, 0.00100000005,           0., 0.00100000005
      3, 0.00100000005, 0.00100000005,           0.
      4, 0.00100000005,           0.,           0.
      5, 4.74974504e-11, 0.00100000005, 0.00100000005
      6, 4.74974504e-11,           0., 0.00100000005
      7, 4.74974504e-11, 0.00100000005,           0.
      8, 4.74974504e-11,           0.,           0.
*Element, type=C3D8T
1, 3, 4, 2, 1, 7, 8, 6, 5
*Nset, nset=Set-4, generate
 1,  8,  1
*Elset, elset=Set-4
 1,
** Section: Section-1
*Solid Section, elset=Set-4, material=thermomechanical
,
*End Part
**  
**
** ASSEMBLY
**
*Assembly, name=Assembly
**  
*Instance, name=cube_assembly, part=cube
     -0.0005,      -0.0005,      -0.0005
*End Instance
**  
*Nset, nset=four_NP, instance=cube_assembly, generate
 1,  7,  2
*Nset, nset=top_side, instance=cube_assembly, generate
 1,  7,  2
*Elset, elset=top_side, instance=cube_assembly
 1,
*Elset, elset=whole_cube_element, instance=cube_assembly
 1,
*Nset, nset=xsymm_side, instance=cube_assembly, generate
 5,  8,  1
*Elset, elset=xsymm_side, instance=cube_assembly
 1,
*Nset, nset=ysymm_side, instance=cube_assembly, generate
 2,  8,  2
*Elset, elset=ysymm_side, instance=cube_assembly
 1,
*Nset, nset=zsymm_side, instance=cube_assembly
 3, 4, 7, 8
*Elset, elset=zsymm_side, instance=cube_assembly
 1,
*End Assembly
*Amplitude, name=loading
             0.,              0.,            100.,              1.
** 
** MATERIALS
** 
*Material, name=thermomechanical
*Density
7900.,
*Depvar
  41,      
1, AR1_sig11, AR1_sig11
2, AR2_sig22, AR2_sig22
3, AR3_sig33, AR3_sig33
4, AR4_sig12, AR4_sig12
5, AR5_sig13, AR5_sig13
6, AR6_sig23, AR6_sig23
7, AR7_stran11, AR7_stran11
8, AR8_stran22, AR8_stran22
9, AR9_stran33, AR9_stran33
10, AR10_stran12, AR10_stran12
11, AR11_stran13, AR11_stran13
12, AR12_stran23, AR12_stran23
13, AR13_eelas11, AR13_eelas11
14, AR14_eelas22, AR14_eelas22
15, AR15_eelas33, AR15_eelas33
16, AR16_eelas12, AR16_eelas12
17, AR17_eelas13, AR17_eelas13
18, AR18_eelas23, AR18_eelas23
19, AR19_eplas11, AR19_eplas11
20, AR20_eplas22, AR20_eplas22
21, AR21_eplas33, AR21_eplas33
22, AR22_eplas12, AR22_eplas12
23, AR23_eplas13, AR23_eplas13
24, AR24_eplas23, AR24_eplas23
25, AR25_eqplas, AR25_eqplas
26, AR26_eqplas_grad_X, AR26_eqplas_grad_X
27, AR27_eqplas_grad_Y, AR27_eqplas_grad_Y
28, AR28_eqplas_grad_Z, AR28_eqplas_grad_Z
29, AR29_deqplas, AR29_deqplas
30, AR30_sig_H, AR30_sig_H
31, AR31_sig_H_grad_X, AR31_sig_H_grad_X
32, AR32_sig_H_grad_Y, AR32_sig_H_grad_Y
33, AR33_sig_H_grad_Z, AR33_sig_H_grad_Z
34, AR34_sig_vonMises, AR34_sig_vonMises
35, AR35_triax, AR35_triax
36, AR36_lode, AR36_lode
37, AR37_u_heat, AR37_u_heat
38, AR38_temp, AR38_temp
39, AR39_flux_heat_X, AR39_flux_heat_X
40, AR40_flux_heat_Y, AR40_flux_heat_Y
41, AR41_flux_heat_Z, AR41_flux_heat_Z
*User Material, constants=8, type=THERMAL
** Density - rho_temp (kg/m^3), Specific heat - cp_temp (N*m/(kg*K)), Conductivity - k_temp (N/(s*K)), none
** none, none, none, none
7900, 400, 0.01, 0.0, 0.0, 0.0, 0.0, 0.0
*User Material, constants=8, type=MECHANICAL
** UMAT_model (1 - elastic, 2 - isotropic vM, 3 - kinematic vM, 4 - enHill48), Young's modulus - E (Pa), Poisson ratio - nu (dimless), none
** none, none, none, none
1, 210.0e+9, 0.3e0, 0.0, 0.0, 0.0, 0.0, 0.0
** ----------------------------------------------------------------
** 
** STEP: step1_thermomechanical
** 
*Step, name=step1_thermomechanical, nlgeom=YES
*Coupled Temperature-displacement, creep=none, deltmx=100.
1., 100., 0.001, 1.
** 
** BOUNDARY CONDITIONS
** 
** Name: heat_transfer Type: Temperature
*Boundary
four_NP, 11, 11, 100.
** Name: top_disp Type: Displacement/Rotation
*Boundary, amplitude=loading
top_side, 2, 2, 0.001
** Name: xsymm Type: Symmetry/Antisymmetry/Encastre
*Boundary
xsymm_side, XSYMM
** Name: ysymm Type: Symmetry/Antisymmetry/Encastre
*Boundary
ysymm_side, YSYMM
** Name: zsymm Type: Symmetry/Antisymmetry/Encastre
*Boundary
zsymm_side, ZSYMM
** 
** OUTPUT REQUESTS
** 
*Restart, write, frequency=0
** 
** FIELD OUTPUT: F-Output-1
** 
*Output, field
*Node Output
NT, RF, U
*Element Output, directions=YES
HFL, LE, S, TEMP, SDV
*Output, history, frequency=0
*End Step
