 Abaqus/Standard 2023.HF4                  DATE 03-Oct-2024 TIME 13:47:55
 SUMMARY OF JOB INFORMATION:
 STEP  INC ATT SEVERE EQUIL TOTAL  TOTAL      STEP       INC OF       DOF    IF
               DISCON ITERS ITERS  TIME/    TIME/LPF    TIME/LPF    MONITOR RIKS
               ITERS               FREQ
   1     1   1     0     3     3  1.00       1.00       1.000     
   1     2   1     0     1     1  2.00       2.00       1.000     
   1     3   1     0     1     1  3.00       3.00       1.000     
   1     4   1     0     1     1  4.00       4.00       1.000     
   1     5   1     0     1     1  5.00       5.00       1.000     
   1     6   1     0     1     1  6.00       6.00       1.000     
   1     7   1     0     1     1  7.00       7.00       1.000     
   1     8   1     0     1     1  8.00       8.00       1.000     
   1     9   1     0     1     1  9.00       9.00       1.000     
   1    10   1     0     1     1  10.0       10.0       1.000     
   1    11   1     0     1     1  11.0       11.0       1.000     
   1    12   1     0     1     1  12.0       12.0       1.000     
   1    13   1     0     1     1  13.0       13.0       1.000     
   1    14   1     0     1     1  14.0       14.0       1.000     
   1    15   1     0     1     1  15.0       15.0       1.000     
   1    16   1     0     1     1  16.0       16.0       1.000     
   1    17   1     0     1     1  17.0       17.0       1.000     
   1    18   1     0     1     1  18.0       18.0       1.000     
   1    19   1     0     1     1  19.0       19.0       1.000     
   1    20   1     0     1     1  20.0       20.0       1.000     
   1    21   1     0     1     1  21.0       21.0       1.000     
   1    22   1     0     1     1  22.0       22.0       1.000     
   1    23   1     0     1     1  23.0       23.0       1.000     
   1    24   1     0     1     1  24.0       24.0       1.000     
   1    25   1     0     1     1  25.0       25.0       1.000     
   1    26   1     0     1     1  26.0       26.0       1.000     
   1    27   1     0     1     1  27.0       27.0       1.000     
   1    28   1     0     1     1  28.0       28.0       1.000     
   1    29   1     0     1     1  29.0       29.0       1.000     
   1    30   1     0     1     1  30.0       30.0       1.000     
   1    31   1     0     1     1  31.0       31.0       1.000     
   1    32   1     0     1     1  32.0       32.0       1.000     
   1    33   1     0     1     1  33.0       33.0       1.000     
   1    34   1     0     1     1  34.0       34.0       1.000     
   1    35   1     0     1     1  35.0       35.0       1.000     
   1    36   1     0     1     1  36.0       36.0       1.000     
   1    37   1     0     1     1  37.0       37.0       1.000     
   1    38   1     0     1     1  38.0       38.0       1.000     
   1    39   1     0     1     1  39.0       39.0       1.000     
   1    40   1     0     1     1  40.0       40.0       1.000     
   1    41   1     0     1     1  41.0       41.0       1.000     
   1    42   1     0     1     1  42.0       42.0       1.000     
   1    43   1     0     1     1  43.0       43.0       1.000     
   1    44   1     0     1     1  44.0       44.0       1.000     
   1    45   1     0     1     1  45.0       45.0       1.000     
   1    46   1     0     1     1  46.0       46.0       1.000     
   1    47   1     0     1     1  47.0       47.0       1.000     
   1    48   1     0     1     1  48.0       48.0       1.000     
   1    49   1     0     1     1  49.0       49.0       1.000     
   1    50   1     0     1     1  50.0       50.0       1.000     
   1    51   1     0     1     1  51.0       51.0       1.000     
   1    52   1     0     1     1  52.0       52.0       1.000     
   1    53   1     0     1     1  53.0       53.0       1.000     
   1    54   1     0     1     1  54.0       54.0       1.000     
   1    55   1     0     1     1  55.0       55.0       1.000     
   1    56   1     0     1     1  56.0       56.0       1.000     
   1    57   1     0     1     1  57.0       57.0       1.000     
   1    58   1     0     1     1  58.0       58.0       1.000     
   1    59   1     0     1     1  59.0       59.0       1.000     
   1    60   1     0     1     1  60.0       60.0       1.000     
   1    61   1     0     1     1  61.0       61.0       1.000     
   1    62   1     0     1     1  62.0       62.0       1.000     
   1    63   1     0     1     1  63.0       63.0       1.000     
   1    64   1     0     1     1  64.0       64.0       1.000     
   1    65   1     0     1     1  65.0       65.0       1.000     
   1    66   1     0     1     1  66.0       66.0       1.000     
   1    67   1     0     1     1  67.0       67.0       1.000     
   1    68   1     0     1     1  68.0       68.0       1.000     
   1    69   1     0     1     1  69.0       69.0       1.000     
   1    70   1     0     1     1  70.0       70.0       1.000     
   1    71   1     0     1     1  71.0       71.0       1.000     
   1    72   1     0     1     1  72.0       72.0       1.000     
   1    73   1     0     1     1  73.0       73.0       1.000     
   1    74   1     0     1     1  74.0       74.0       1.000     
   1    75   1     0     1     1  75.0       75.0       1.000     
   1    76   1     0     1     1  76.0       76.0       1.000     
   1    77   1     0     1     1  77.0       77.0       1.000     
   1    78   1     0     1     1  78.0       78.0       1.000     
   1    79   1     0     1     1  79.0       79.0       1.000     
   1    80   1     0     1     1  80.0       80.0       1.000     
   1    81   1     0     1     1  81.0       81.0       1.000     
   1    82   1     0     1     1  82.0       82.0       1.000     
   1    83   1     0     1     1  83.0       83.0       1.000     
   1    84   1     0     1     1  84.0       84.0       1.000     
   1    85   1     0     1     1  85.0       85.0       1.000     
   1    86   1     0     1     1  86.0       86.0       1.000     
   1    87   1     0     1     1  87.0       87.0       1.000     
   1    88   1     0     1     1  88.0       88.0       1.000     
   1    89   1     0     1     1  89.0       89.0       1.000     
   1    90   1     0     1     1  90.0       90.0       1.000     
   1    91   1     0     1     1  91.0       91.0       1.000     
   1    92   1     0     1     1  92.0       92.0       1.000     
   1    93   1     0     1     1  93.0       93.0       1.000     
   1    94   1     0     1     1  94.0       94.0       1.000     
   1    95   1     0     1     1  95.0       95.0       1.000     
   1    96   1     0     1     1  96.0       96.0       1.000     
   1    97   1     0     1     1  97.0       97.0       1.000     
   1    98   1     0     1     1  98.0       98.0       1.000     
   1    99   1     0     1     1  99.0       99.0       1.000     
   1   100   1     0     1     1  100.       100.       1.000     
   2     1   1     0     0     0  100.       1.00e-36   1.000e-36 
   3     1   1     0     0     0  100.       1.00e-36   1.000e-36 
   4     1   1     0     1     1  100.       0.0100     0.01000   
   4     2   1     0     1     1  100.       0.0200     0.01000   
   4     3   1     0     1     1  100.       0.0300     0.01000   
   4     4   1     0     1     1  100.       0.0400     0.01000   
   4     5   1     0     1     1  100.       0.0500     0.01000   
   4     6   1     0     1     1  100.       0.0600     0.01000   
   4     7   1     0     1     1  100.       0.0700     0.01000   
   4     8   1     0     1     1  100.       0.0800     0.01000   
   4     9   1     0     1     1  100.       0.0900     0.01000   
   4    10   1     0     1     1  100.       0.100      0.01000   
   4    11   1     0     1     1  100.       0.110      0.01000   
   4    12   1     0     1     1  100.       0.120      0.01000   
   4    13   1     0     1     1  100.       0.130      0.01000   
   4    14   1     0     1     1  100.       0.140      0.01000   
   4    15   1     0     1     1  100.       0.150      0.01000   
   4    16   1     0     1     1  100.       0.160      0.01000   
   4    17   1     0     1     1  100.       0.170      0.01000   
   4    18   1     0     1     1  100.       0.180      0.01000   
   4    19   1     0     1     1  100.       0.190      0.01000   
   4    20   1     0     1     1  100.       0.200      0.01000   
   4    21   1     0     1     1  100.       0.210      0.01000   
   4    22   1     0     1     1  100.       0.220      0.01000   
   4    23   1     0     1     1  100.       0.230      0.01000   
   4    24   1     0     1     1  100.       0.240      0.01000   
   4    25   1     0     1     1  100.       0.250      0.01000   
   4    26   1     0     1     1  100.       0.260      0.01000   
   4    27   1     0     1     1  100.       0.270      0.01000   
   4    28   1     0     1     1  100.       0.280      0.01000   
   4    29   1     0     1     1  100.       0.290      0.01000   
   4    30   1     0     1     1  100.       0.300      0.01000   
   4    31   1     0     1     1  100.       0.310      0.01000   
   4    32   1     0     1     1  100.       0.320      0.01000   
   4    33   1     0     1     1  100.       0.330      0.01000   
   4    34   1     0     1     1  100.       0.340      0.01000   
   4    35   1     0     1     1  100.       0.350      0.01000   
   4    36   1     0     1     1  100.       0.360      0.01000   
   4    37   1     0     1     1  100.       0.370      0.01000   
   4    38   1     0     1     1  100.       0.380      0.01000   
   4    39   1     0     1     1  100.       0.390      0.01000   
   4    40   1     0     1     1  100.       0.400      0.01000   
   4    41   1     0     1     1  100.       0.410      0.01000   
   4    42   1     0     1     1  100.       0.420      0.01000   
   4    43   1     0     1     1  100.       0.430      0.01000   
   4    44   1     0     1     1  100.       0.440      0.01000   
   4    45   1     0     1     1  100.       0.450      0.01000   
   4    46   1     0     1     1  100.       0.460      0.01000   
   4    47   1     0     1     1  100.       0.470      0.01000   
   4    48   1     0     1     1  100.       0.480      0.01000   
   4    49   1     0     1     1  100.       0.490      0.01000   
   4    50   1     0     1     1  101.       0.500      0.01000   
   4    51   1     0     1     1  101.       0.510      0.01000   
   4    52   1     0     1     1  101.       0.520      0.01000   
   4    53   1     0     1     1  101.       0.530      0.01000   
   4    54   1     0     1     1  101.       0.540      0.01000   
   4    55   1     0     1     1  101.       0.550      0.01000   
   4    56   1     0     1     1  101.       0.560      0.01000   
   4    57   1     0     1     1  101.       0.570      0.01000   
   4    58   1     0     1     1  101.       0.580      0.01000   
   4    59   1     0     1     1  101.       0.590      0.01000   
   4    60   1     0     1     1  101.       0.600      0.01000   
   4    61   1     0     1     1  101.       0.610      0.01000   
   4    62   1     0     1     1  101.       0.620      0.01000   
   4    63   1     0     1     1  101.       0.630      0.01000   
   4    64   1     0     1     1  101.       0.640      0.01000   
   4    65   1     0     1     1  101.       0.650      0.01000   
   4    66   1     0     1     1  101.       0.660      0.01000   
   4    67   1     0     1     1  101.       0.670      0.01000   
   4    68   1     0     1     1  101.       0.680      0.01000   
   4    69   1     0     1     1  101.       0.690      0.01000   
   4    70   1     0     1     1  101.       0.700      0.01000   
   4    71   1     0     1     1  101.       0.710      0.01000   
   4    72   1     0     1     1  101.       0.720      0.01000   
   4    73   1     0     1     1  101.       0.730      0.01000   
   4    74   1     0     1     1  101.       0.740      0.01000   
   4    75   1     0     1     1  101.       0.750      0.01000   
   4    76   1     0     1     1  101.       0.760      0.01000   
   4    77   1     0     1     1  101.       0.770      0.01000   
   4    78   1     0     1     1  101.       0.780      0.01000   
   4    79   1     0     1     1  101.       0.790      0.01000   
   4    80   1     0     1     1  101.       0.800      0.01000   
   4    81   1     0     1     1  101.       0.810      0.01000   
   4    82   1     0     1     1  101.       0.820      0.01000   
   4    83   1     0     1     1  101.       0.830      0.01000   
   4    84   1     0     1     1  101.       0.840      0.01000   
   4    85   1     0     1     1  101.       0.850      0.01000   
   4    86   1     0     1     1  101.       0.860      0.01000   
   4    87   1     0     1     1  101.       0.870      0.01000   
   4    88   1     0     1     1  101.       0.880      0.01000   
   4    89   1     0     1     1  101.       0.890      0.01000   
   4    90   1     0     1     1  101.       0.900      0.01000   
   4    91   1     0     1     1  101.       0.910      0.01000   
   4    92   1     0     1     1  101.       0.920      0.01000   
   4    93   1     0     1     1  101.       0.930      0.01000   
   4    94   1     0     1     1  101.       0.940      0.01000   
   4    95   1     0     1     1  101.       0.950      0.01000   
   4    96   1     0     1     1  101.       0.960      0.01000   
   4    97   1     0     1     1  101.       0.970      0.01000   
   4    98   1     0     1     1  101.       0.980      0.01000   
   4    99   1     0     1     1  101.       0.990      0.01000   
   4   100   1     0     1     1  101.       1.00       0.01000   
                          
 THE ANALYSIS HAS COMPLETED SUCCESSFULLY
