1

   Abaqus 2023.HF4                                  Date 03-Oct-2024   Time 13:47:50
   For use by AALTO UNIVERSITY under license from Dassault Systemes or its subsidiary.



                         The Abaqus Software is a product of:

                           Dassault Systemes SIMULIA Corp.
                           1301 Atwood Avenue, Suite 101W
                              Johnston, RI 02919, USA
 


                   The Abaqus Software is available only under license
                   from Dassault Systemes or its subsidiary and may be
                   used or reproduced only in accordance with the terms
                   of such license.
 
                          On machine L23-0203 
                          you are authorized to run
                          Abaqus/Standard until 20-Feb-2025

                          Your site id is: 200000000014764 


 
                    For assistance or any other information you may
                    obtain contact information for your local office
                    from the world wide web at:

                      https://www.3ds.com/products-services/simulia/services-support/

 
                * * * * * * * * * * * * * * * * * * * * * * * * * * * * * * 
                *                                                         * 
                *                   *****************                     * 
                *                   *  N O T I C E  *                     * 
                *                   *****************                     * 
                *                                                         * 
                *                                                         * 
                *                     Abaqus 2023.HF4                     * 
                *                                                         * 
                *       BUILD ID: 2023_07_21-20.45.57 RELr425 183702      * 
                *                                                         * 
                *                                                         * 
                *  Please make sure you are using                         * 
                *  release Abaqus 2023.HF4 manuals                        * 
                *  plus the notes accompanying this release.              * 
                *                                                         * 
                *                                                         * 
                *                                                         * 
                *                                                         * 
                *                                                         * 
                *   This program may not be used for commercial purposes  * 
                *           without payment of a commercial fee.          * 
                *                                                         * 
                * * * * * * * * * * * * * * * * * * * * * * * * * * * * * * 


 



     PROCESSING PART, INSTANCE, AND ASSEMBLY INFORMATION
   *******************************************************


     END PROCESSING PART, INSTANCE, AND ASSEMBLY INFORMATION
   ***********************************************************




     OPTIONS BEING PROCESSED
   ***************************


  *Heading
  *Element, type=C3D8
  *Elset, elset=ASSEMBLY_CUBE_ASSEMBLY_SET-4
  *Elset, elset=ASSEMBLY_BOTTOM_SIDE
  *Elset, elset=ASSEMBLY_TOP_SIDE
  *Elset, elset=ASSEMBLY_WHOLE_CUBE_ELEMENT
  *Elset, elset=ASSEMBLY_XSYMM_SIDE
  *Elset, elset=ASSEMBLY_ZSYMM_SIDE
  *fileformat, ascii
  *material, name=VON_MISES_SUBROUTINE
  *density
  *depvar
  *usermaterial, constants=208
  *solidsection, elset=ASSEMBLY_CUBE_ASSEMBLY_SET-4, material=VON_MISES_SUBROUTINE
  *solidsection, elset=ASSEMBLY_CUBE_ASSEMBLY_SET-4, material=VON_MISES_SUBROUTINE
  *boundary
  *boundary
  *boundary
  *boundary, amplitude=LOADING
  *boundary
  *boundary
  *boundary
  *boundary, amplitude=LOADING
  *output, field, numberinterval=100
  *output, history, frequency=0
  *elementoutput, directions=YES
  *output, field, numberinterval=100
  *output, history, frequency=0
  *elementoutput, directions=YES
  *output, field, numberinterval=100
  *output, history, frequency=0
  *elementoutput, directions=YES
  *Step, name=step1_tensile, nlgeom=YES, amplitude=STEP, inc=1000000
  *output, field, numberinterval=100
  *output, history, frequency=0
  *Step, name=Global_Stiffness_Matrix
  *Step, name=Global_Stiffness_Coordinate
  *Step, name=Global_Element_Stiffness_Matrix
  *Step, name=step1_tensile, nlgeom=YES, amplitude=STEP, inc=1000000
  *Step, name=Global_Stiffness_Matrix
  *Step, name=Global_Stiffness_Coordinate
  *Step, name=Global_Element_Stiffness_Matrix
  *Step, name=step1_tensile, nlgeom=YES, amplitude=STEP, inc=1000000
  *static
  *boundary, amplitude=LOADING
  *output, field, numberinterval=100
  *nodeoutput
  *elementoutput, directions=YES
  *output, history, frequency=0
  *endstep

 ***WARNING: OUTPUT AT EXACT, PREDEFINED TIME POINTS WAS REQUESTED IN THIS 
             STEP. IN ORDER TO WRITE OUTPUT AT EXACT TIME POINTS SPECIFIED, 
             Abaqus MIGHT USE TIME INCREMENTS SMALLER THAN THE MINIMUM TIME 
             INCREMENT ALLOWED IN THE STEP. IN ADDITION, THE NUMBER OF 
             INCREMENTS REQUIRED TO COMPLETE THE STEP WILL IN GENERAL INCREASE.

 ***WARNING: THE REQUEST FOR MISES OUTPUT WILL BE REPLACED BY A REQUEST FOR S 
             OUTPUT
  *Step, name=Global_Stiffness_Matrix
  *matrixgenerate, stiffness
  *matrixoutput, stiffness, format=MATRIXINPUT
  *endstep

 ***WARNING: THE NLGEOM FLAG IS ACTIVATED BECAUSE IT WAS ACTIVE IN THE PREVIOUS 
             STEP. GEOMETRIC NONLINEARITY IN THE BASE STATE WILL BE CONSIDERED 
             IN THE CURRENT STEP.
  *Step, name=Global_Stiffness_Coordinate
  *matrixgenerate, stiffness
  *matrixoutput, stiffness, format=COORDINATE
  *endstep

 ***WARNING: THE NLGEOM FLAG IS ACTIVATED BECAUSE IT WAS ACTIVE IN THE PREVIOUS 
             STEP. GEOMETRIC NONLINEARITY IN THE BASE STATE WILL BE CONSIDERED 
             IN THE CURRENT STEP.
  *Step, name=Global_Element_Stiffness_Matrix
  *static
  *elementmatrixoutput, elset=ASSEMBLY_WHOLE_CUBE_ELEMENT, filename=CUBE_C3D8_DEFORMATION_ELEMENT_STIFFNESS, frequency=1, outputfile=USERDEFINED, stiffness=YES
  *endstep

 ***WARNING: THE NLGEOM FLAG IS ACTIVATED BECAUSE IT WAS ACTIVE IN THE PREVIOUS 
             STEP. GEOMETRIC NONLINEARITY IN THE BASE STATE WILL BE CONSIDERED 
             IN THE CURRENT STEP.

 ***WARNING: OUTPUT AT EXACT, PREDEFINED TIME POINTS WAS REQUESTED IN THIS 
             STEP. IN ORDER TO WRITE OUTPUT AT EXACT TIME POINTS SPECIFIED, 
             Abaqus MIGHT USE TIME INCREMENTS SMALLER THAN THE MINIMUM TIME 
             INCREMENT ALLOWED IN THE STEP. IN ADDITION, THE NUMBER OF 
             INCREMENTS REQUIRED TO COMPLETE THE STEP WILL IN GENERAL INCREASE.
  *boundary
  *boundary
  *boundary
  *Step, name=step1_tensile, nlgeom=YES, amplitude=STEP, inc=1000000
  *static
  *boundary, amplitude=LOADING
  *endstep
  *Step, name=Global_Stiffness_Matrix
  *endstep
  *Step, name=Global_Stiffness_Coordinate
  *endstep
  *Step, name=Global_Element_Stiffness_Matrix
  *static
  *endstep


                              E L E M E N T,   N O D E,   A N D   S U R F A C E   M A P S


**NOTE: This section may not include complete information about
        members of sets and surfaces. Use *PREPRINT, MODEL=YES 
        in order to get the set and surface members printed    
        under the following sections:                          
            - E L E M E N T   S E T S                          
            - N O D E   S E T S                                
            - S U R F A C E   D E F I N I T I O N S .          


Assembly name: ASSEMBLY
Number of instances: 1

ASSEMBLY LEVEL
  node sets:
    BOTTOM_SIDE:
      instance name: CUBE_ASSEMBLY
      number of nodes: 4
      nodes: 
        2 4 6 8

    TOP_SIDE:
      instance name: CUBE_ASSEMBLY
      number of nodes: 4
      nodes: 
        1 3 5 7

    XSYMM_SIDE:
      instance name: CUBE_ASSEMBLY
      number of nodes: 4
      nodes: 
        5 6 7 8

    ZSYMM_SIDE:
      instance name: CUBE_ASSEMBLY
      number of nodes: 4
      nodes: 
        3 4 7 8

  element sets:
    BOTTOM_SIDE:
      instance name: CUBE_ASSEMBLY
      number of elements: 1
      elements: 
        1

    TOP_SIDE:
      instance name: CUBE_ASSEMBLY
      number of elements: 1
      elements: 
        1

    WHOLE_CUBE_ELEMENT:
      instance name: CUBE_ASSEMBLY
      number of elements: 1
      elements: 
        1

    XSYMM_SIDE:
      instance name: CUBE_ASSEMBLY
      number of elements: 1
      elements: 
        1

    ZSYMM_SIDE:
      instance name: CUBE_ASSEMBLY
      number of elements: 1
      elements: 
        1

  Surfaces:

INSTANCE LEVEL
  node sets:
    Instance name: CUBE_ASSEMBLY
      node set name: SET-4
        number of nodes: 8
        nodes: 
          1 2 3 4 5 6 7 8

  element sets:
    Instance name: CUBE_ASSEMBLY
      element set name: SET-4
        number of elements: 1
        elements: 
          1

  Surfaces:

GLOBAL TO LOCAL NODE AND ELEMENT MAPS
  Global     Local      
  node       node       
  number     number     
                        Instance name                                   
   1          1         CUBE_ASSEMBLY                                   
   2          2         CUBE_ASSEMBLY                                   
   3          3         CUBE_ASSEMBLY                                   
   4          4         CUBE_ASSEMBLY                                   
   5          5         CUBE_ASSEMBLY                                   
   6          6         CUBE_ASSEMBLY                                   
   7          7         CUBE_ASSEMBLY                                   
   8          8         CUBE_ASSEMBLY                                   

  Global     Local      
  element    element    
  number     number     
                        Instance name                                   
   1          1         CUBE_ASSEMBLY                                   

LOCAL TO GLOBAL NODE AND ELEMENT MAPS
                                                  Local      Global     
                                                  node       node       
                                                  number     number
  Instance name
  CUBE_ASSEMBLY                                    1          1         
  CUBE_ASSEMBLY                                    2          2         
  CUBE_ASSEMBLY                                    3          3         
  CUBE_ASSEMBLY                                    4          4         
  CUBE_ASSEMBLY                                    5          5         
  CUBE_ASSEMBLY                                    6          6         
  CUBE_ASSEMBLY                                    7          7         
  CUBE_ASSEMBLY                                    8          8         

                                                  Local      Global     
                                                  element    element    
                                                  number     number
  Instance name
  CUBE_ASSEMBLY                                    1          1         




                            P R O B L E M   S I Z E


          NUMBER OF ELEMENTS IS                                     1
          NUMBER OF NODES IS                                        8
          NUMBER OF NODES DEFINED BY THE USER                       8
          TOTAL NUMBER OF VARIABLES IN THE MODEL                   24
          (DEGREES OF FREEDOM PLUS MAX NO. OF ANY LAGRANGE MULTIPLIER
           VARIABLES. INCLUDE *PRINT,SOLVE=YES TO GET THE ACTUAL NUMBER.)



                              END OF USER INPUT PROCESSING



     JOB TIME SUMMARY
       USER TIME (SEC)      =     0.10    
       SYSTEM TIME (SEC)    =      0.0    
       TOTAL CPU TIME (SEC) =     0.10    
       WALLCLOCK TIME (SEC) =            1
1

   Abaqus 2023.HF4                                  Date 03-Oct-2024   Time 13:47:55
   For use by AALTO UNIVERSITY under license from Dassault Systemes or its subsidiary.

                                                                                               STEP    1  INCREMENT    1
                                                                                          TIME COMPLETED IN THIS STEP   0.00    


                        S T E P       1     S T A T I C   A N A L Y S I S


                                                                                          

     AUTOMATIC TIME CONTROL WITH -
          A SUGGESTED INITIAL TIME INCREMENT OF                 1.00    
          AND A TOTAL TIME PERIOD OF                            100.    
          THE MINIMUM TIME INCREMENT ALLOWED IS                1.000E-07
          THE MAXIMUM TIME INCREMENT ALLOWED IS                 1.00    

     LINEAR EQUATION SOLVER TYPE         DIRECT SPARSE

          LARGE DISPLACEMENT THEORY WILL BE USED
  
                   M E M O R Y   E S T I M A T E
  
 PROCESS      FLOATING PT       MINIMUM MEMORY        MEMORY TO
              OPERATIONS           REQUIRED          MINIMIZE I/O
             PER ITERATION           (MB)               (MB)
  
     1          4.90E+03               17                 24
  
 NOTE:
      (1) SINCE ABAQUS DOES NOT PRE-ALLOCATE MEMORY AND ONLY ALLOCATES MEMORY AS NEEDED DURING THE ANALYSIS,
          THE MEMORY REQUIREMENT PRINTED HERE CAN ONLY BE VIEWED AS A GENERAL GUIDELINE BASED ON THE BEST
          KNOWLEDGE AVAILABLE AT THE BEGINNING OF A STEP BEFORE THE SOLUTION PROCESS HAS BEGUN.
      (2) THE ESTIMATE IS NORMALLY UPDATED AT THE BEGINNING OF EVERY STEP. IT IS THE MAXIMUM VALUE OF THE
          ESTIMATE FROM THE CURRENT STEP TO THE LAST STEP OF THE ANALYSIS, WITH UNSYMMETRIC SOLUTION TAKEN
          INTO ACCOUNT IF APPLICABLE. 
      (3) SINCE THE ESTIMATE IS BASED ON THE ACTIVE DEGREES OF FREEDOM IN THE FIRST ITERATION OF THE 
          CURRENT STEP, THE MEMORY ESTIMATE MIGHT BE SIGNIFICANTLY DIFFERENT THAN ACTUAL USAGE FOR 
          PROBLEMS WITH SUBSTANTIAL CHANGES IN ACTIVE DEGREES OF FREEDOM BETWEEN STEPS (OR EVEN WITHIN
          THE SAME STEP). EXAMPLES ARE: PROBLEMS WITH SIGNIFICANT CONTACT CHANGES, PROBLEMS WITH MODEL
          CHANGE, PROBLEMS WITH BOTH STATIC STEP AND STEADY STATE DYNAMIC PROCEDURES WHERE ACOUSTIC 
          ELEMENTS WILL ONLY BE ACTIVATED IN THE STEADY STATE DYNAMIC STEPS.
      (4) FOR MULTI-PROCESS EXECUTION, THE ESTIMATED VALUE OF FLOATING POINT OPERATIONS FOR EACH PROCESS
          IS BASED ON AN INITIAL SCHEDULING OF OPERATIONS AND MIGHT NOT REFLECT THE ACTUAL FLOATING 
          POINT OPERATIONS COMPLETED ON EACH PROCESS. OPERATIONS ARE DYNAMICALLY BALANCED DURING EXECUTION, 
          SO THE ACTUAL BALANCE OF OPERATIONS BETWEEN PROCESSES IS EXPECTED TO BE BETTER THAN THE ESTIMATE
          PRINTED HERE.
      (5) THE UPPER LIMIT OF MEMORY THAT CAN BE ALLOCATED BY ABAQUS WILL IN GENERAL DEPEND ON THE VALUE OF
          THE "MEMORY" PARAMETER AND THE AMOUNT OF PHYSICAL MEMORY AVAILABLE ON THE MACHINE. PLEASE SEE
          THE "ABAQUS ANALYSIS USER'S MANUAL" FOR MORE DETAILS. THE ACTUAL USAGE OF MEMORY AND OF DISK
          SPACE FOR SCRATCH DATA WILL DEPEND ON THIS UPPER LIMIT AS WELL AS THE MEMORY REQUIRED TO MINIMIZE
          I/O. IF THE MEMORY UPPER LIMIT IS GREATER THAN THE MEMORY REQUIRED TO MINIMIZE I/O, THEN THE ACTUAL
          MEMORY USAGE WILL BE CLOSE TO THE ESTIMATED "MEMORY TO MINIMIZE I/O" VALUE, AND THE SCRATCH DISK
          USAGE WILL BE CLOSE-TO-ZERO; OTHERWISE, THE ACTUAL MEMORY USED WILL BE CLOSE TO THE PREVIOUSLY
          MENTIONED MEMORY LIMIT, AND THE SCRATCH DISK USAGE WILL BE ROUGHLY PROPORTIONAL TO THE DIFFERENCE
          BETWEEN THE ESTIMATED "MEMORY TO MINIMIZE I/O" AND THE MEMORY UPPER LIMIT. HOWEVER ACCURATE
          ESTIMATE OF THE SCRATCH DISK SPACE IS NOT POSSIBLE.
      (6) USING "*RESTART, WRITE" CAN GENERATE A LARGE AMOUNT OF DATA WRITTEN IN THE WORK DIRECTORY.
1

   Abaqus 2023.HF4                                  Date 03-Oct-2024   Time 13:47:58
   For use by AALTO UNIVERSITY under license from Dassault Systemes or its subsidiary.

                                                                                               STEP    2  INCREMENT    1
                                                                                          TIME COMPLETED IN THIS STEP   0.00    
 


                        S T E P       2     M A T R I X   G E N E R A T E
 
  THE FOLLOWING GLOBAL MATRICES WILL BE GENERATED AND WRITTEN TO cube_C3D8_deformation_X2.sim

    STIFFNESS
 
  IF MULTI-POINT CONSTRAINTS ARE SPECIFIED IN THE MODEL, THEY WILL BE APPLIED
 
  THE FOLLOWING GLOBAL MATRICES WILL BE WRITTEN TO THE FOLLOWING TEXT FILES

    STIFFNESS          TO cube_C3D8_deformation_STIF2.mtx
 
  MATRIX OUTPUT FORMAT - MATRIX INPUT
  
                   M E M O R Y   E S T I M A T E
  
 PROCESS      FLOATING PT       MINIMUM MEMORY        MEMORY TO
              OPERATIONS           REQUIRED          MINIMIZE I/O
             PER ITERATION           (MB)               (MB)
  
     1          4.90E+03               15                 22
  
 NOTE:
      (1) SINCE ABAQUS DOES NOT PRE-ALLOCATE MEMORY AND ONLY ALLOCATES MEMORY AS NEEDED DURING THE ANALYSIS,
          THE MEMORY REQUIREMENT PRINTED HERE CAN ONLY BE VIEWED AS A GENERAL GUIDELINE BASED ON THE BEST
          KNOWLEDGE AVAILABLE AT THE BEGINNING OF A STEP BEFORE THE SOLUTION PROCESS HAS BEGUN.
      (2) THE ESTIMATE IS NORMALLY UPDATED AT THE BEGINNING OF EVERY STEP. IT IS THE MAXIMUM VALUE OF THE
          ESTIMATE FROM THE CURRENT STEP TO THE LAST STEP OF THE ANALYSIS, WITH UNSYMMETRIC SOLUTION TAKEN
          INTO ACCOUNT IF APPLICABLE. 
      (3) SINCE THE ESTIMATE IS BASED ON THE ACTIVE DEGREES OF FREEDOM IN THE FIRST ITERATION OF THE 
          CURRENT STEP, THE MEMORY ESTIMATE MIGHT BE SIGNIFICANTLY DIFFERENT THAN ACTUAL USAGE FOR 
          PROBLEMS WITH SUBSTANTIAL CHANGES IN ACTIVE DEGREES OF FREEDOM BETWEEN STEPS (OR EVEN WITHIN
          THE SAME STEP). EXAMPLES ARE: PROBLEMS WITH SIGNIFICANT CONTACT CHANGES, PROBLEMS WITH MODEL
          CHANGE, PROBLEMS WITH BOTH STATIC STEP AND STEADY STATE DYNAMIC PROCEDURES WHERE ACOUSTIC 
          ELEMENTS WILL ONLY BE ACTIVATED IN THE STEADY STATE DYNAMIC STEPS.
      (4) FOR MULTI-PROCESS EXECUTION, THE ESTIMATED VALUE OF FLOATING POINT OPERATIONS FOR EACH PROCESS
          IS BASED ON AN INITIAL SCHEDULING OF OPERATIONS AND MIGHT NOT REFLECT THE ACTUAL FLOATING 
          POINT OPERATIONS COMPLETED ON EACH PROCESS. OPERATIONS ARE DYNAMICALLY BALANCED DURING EXECUTION, 
          SO THE ACTUAL BALANCE OF OPERATIONS BETWEEN PROCESSES IS EXPECTED TO BE BETTER THAN THE ESTIMATE
          PRINTED HERE.
      (5) THE UPPER LIMIT OF MEMORY THAT CAN BE ALLOCATED BY ABAQUS WILL IN GENERAL DEPEND ON THE VALUE OF
          THE "MEMORY" PARAMETER AND THE AMOUNT OF PHYSICAL MEMORY AVAILABLE ON THE MACHINE. PLEASE SEE
          THE "ABAQUS ANALYSIS USER'S MANUAL" FOR MORE DETAILS. THE ACTUAL USAGE OF MEMORY AND OF DISK
          SPACE FOR SCRATCH DATA WILL DEPEND ON THIS UPPER LIMIT AS WELL AS THE MEMORY REQUIRED TO MINIMIZE
          I/O. IF THE MEMORY UPPER LIMIT IS GREATER THAN THE MEMORY REQUIRED TO MINIMIZE I/O, THEN THE ACTUAL
          MEMORY USAGE WILL BE CLOSE TO THE ESTIMATED "MEMORY TO MINIMIZE I/O" VALUE, AND THE SCRATCH DISK
          USAGE WILL BE CLOSE-TO-ZERO; OTHERWISE, THE ACTUAL MEMORY USED WILL BE CLOSE TO THE PREVIOUSLY
          MENTIONED MEMORY LIMIT, AND THE SCRATCH DISK USAGE WILL BE ROUGHLY PROPORTIONAL TO THE DIFFERENCE
          BETWEEN THE ESTIMATED "MEMORY TO MINIMIZE I/O" AND THE MEMORY UPPER LIMIT. HOWEVER ACCURATE
          ESTIMATE OF THE SCRATCH DISK SPACE IS NOT POSSIBLE.
      (6) USING "*RESTART, WRITE" CAN GENERATE A LARGE AMOUNT OF DATA WRITTEN IN THE WORK DIRECTORY.
  
1

   Abaqus 2023.HF4                                  Date 03-Oct-2024   Time 13:47:58
   For use by AALTO UNIVERSITY under license from Dassault Systemes or its subsidiary.

                                                                                               STEP    3  INCREMENT    1
                                                                                          TIME COMPLETED IN THIS STEP   0.00    
 


                        S T E P       3     M A T R I X   G E N E R A T E
 
  THE FOLLOWING GLOBAL MATRICES WILL BE GENERATED AND WRITTEN TO cube_C3D8_deformation_X3.sim

    STIFFNESS
 
  IF MULTI-POINT CONSTRAINTS ARE SPECIFIED IN THE MODEL, THEY WILL BE APPLIED
 
  THE FOLLOWING GLOBAL MATRICES WILL BE WRITTEN TO THE FOLLOWING TEXT FILES

    STIFFNESS          TO cube_C3D8_deformation_STIF3.mtx
 
  MATRIX OUTPUT FORMAT - COORDINATE
  
                   M E M O R Y   E S T I M A T E
  
 PROCESS      FLOATING PT       MINIMUM MEMORY        MEMORY TO
              OPERATIONS           REQUIRED          MINIMIZE I/O
             PER ITERATION           (MB)               (MB)
  
     1          4.90E+03               15                 22
  
 NOTE:
      (1) SINCE ABAQUS DOES NOT PRE-ALLOCATE MEMORY AND ONLY ALLOCATES MEMORY AS NEEDED DURING THE ANALYSIS,
          THE MEMORY REQUIREMENT PRINTED HERE CAN ONLY BE VIEWED AS A GENERAL GUIDELINE BASED ON THE BEST
          KNOWLEDGE AVAILABLE AT THE BEGINNING OF A STEP BEFORE THE SOLUTION PROCESS HAS BEGUN.
      (2) THE ESTIMATE IS NORMALLY UPDATED AT THE BEGINNING OF EVERY STEP. IT IS THE MAXIMUM VALUE OF THE
          ESTIMATE FROM THE CURRENT STEP TO THE LAST STEP OF THE ANALYSIS, WITH UNSYMMETRIC SOLUTION TAKEN
          INTO ACCOUNT IF APPLICABLE. 
      (3) SINCE THE ESTIMATE IS BASED ON THE ACTIVE DEGREES OF FREEDOM IN THE FIRST ITERATION OF THE 
          CURRENT STEP, THE MEMORY ESTIMATE MIGHT BE SIGNIFICANTLY DIFFERENT THAN ACTUAL USAGE FOR 
          PROBLEMS WITH SUBSTANTIAL CHANGES IN ACTIVE DEGREES OF FREEDOM BETWEEN STEPS (OR EVEN WITHIN
          THE SAME STEP). EXAMPLES ARE: PROBLEMS WITH SIGNIFICANT CONTACT CHANGES, PROBLEMS WITH MODEL
          CHANGE, PROBLEMS WITH BOTH STATIC STEP AND STEADY STATE DYNAMIC PROCEDURES WHERE ACOUSTIC 
          ELEMENTS WILL ONLY BE ACTIVATED IN THE STEADY STATE DYNAMIC STEPS.
      (4) FOR MULTI-PROCESS EXECUTION, THE ESTIMATED VALUE OF FLOATING POINT OPERATIONS FOR EACH PROCESS
          IS BASED ON AN INITIAL SCHEDULING OF OPERATIONS AND MIGHT NOT REFLECT THE ACTUAL FLOATING 
          POINT OPERATIONS COMPLETED ON EACH PROCESS. OPERATIONS ARE DYNAMICALLY BALANCED DURING EXECUTION, 
          SO THE ACTUAL BALANCE OF OPERATIONS BETWEEN PROCESSES IS EXPECTED TO BE BETTER THAN THE ESTIMATE
          PRINTED HERE.
      (5) THE UPPER LIMIT OF MEMORY THAT CAN BE ALLOCATED BY ABAQUS WILL IN GENERAL DEPEND ON THE VALUE OF
          THE "MEMORY" PARAMETER AND THE AMOUNT OF PHYSICAL MEMORY AVAILABLE ON THE MACHINE. PLEASE SEE
          THE "ABAQUS ANALYSIS USER'S MANUAL" FOR MORE DETAILS. THE ACTUAL USAGE OF MEMORY AND OF DISK
          SPACE FOR SCRATCH DATA WILL DEPEND ON THIS UPPER LIMIT AS WELL AS THE MEMORY REQUIRED TO MINIMIZE
          I/O. IF THE MEMORY UPPER LIMIT IS GREATER THAN THE MEMORY REQUIRED TO MINIMIZE I/O, THEN THE ACTUAL
          MEMORY USAGE WILL BE CLOSE TO THE ESTIMATED "MEMORY TO MINIMIZE I/O" VALUE, AND THE SCRATCH DISK
          USAGE WILL BE CLOSE-TO-ZERO; OTHERWISE, THE ACTUAL MEMORY USED WILL BE CLOSE TO THE PREVIOUSLY
          MENTIONED MEMORY LIMIT, AND THE SCRATCH DISK USAGE WILL BE ROUGHLY PROPORTIONAL TO THE DIFFERENCE
          BETWEEN THE ESTIMATED "MEMORY TO MINIMIZE I/O" AND THE MEMORY UPPER LIMIT. HOWEVER ACCURATE
          ESTIMATE OF THE SCRATCH DISK SPACE IS NOT POSSIBLE.
      (6) USING "*RESTART, WRITE" CAN GENERATE A LARGE AMOUNT OF DATA WRITTEN IN THE WORK DIRECTORY.
  
1

   Abaqus 2023.HF4                                  Date 03-Oct-2024   Time 13:47:58
   For use by AALTO UNIVERSITY under license from Dassault Systemes or its subsidiary.

                                                                                               STEP    4  INCREMENT    1
                                                                                          TIME COMPLETED IN THIS STEP   0.00    


                        S T E P       4     S T A T I C   A N A L Y S I S


                                                                                          

     AUTOMATIC TIME CONTROL WITH -
          A SUGGESTED INITIAL TIME INCREMENT OF                 1.00    
          AND A TOTAL TIME PERIOD OF                            1.00    
          THE MINIMUM TIME INCREMENT ALLOWED IS                1.000E-05
          THE MAXIMUM TIME INCREMENT ALLOWED IS                 1.00    

     LINEAR EQUATION SOLVER TYPE         DIRECT SPARSE

          LARGE DISPLACEMENT THEORY WILL BE USED
  
                   M E M O R Y   E S T I M A T E
  
 PROCESS      FLOATING PT       MINIMUM MEMORY        MEMORY TO
              OPERATIONS           REQUIRED          MINIMIZE I/O
             PER ITERATION           (MB)               (MB)
  
     1          4.90E+03               17                 24
  
 NOTE:
      (1) SINCE ABAQUS DOES NOT PRE-ALLOCATE MEMORY AND ONLY ALLOCATES MEMORY AS NEEDED DURING THE ANALYSIS,
          THE MEMORY REQUIREMENT PRINTED HERE CAN ONLY BE VIEWED AS A GENERAL GUIDELINE BASED ON THE BEST
          KNOWLEDGE AVAILABLE AT THE BEGINNING OF A STEP BEFORE THE SOLUTION PROCESS HAS BEGUN.
      (2) THE ESTIMATE IS NORMALLY UPDATED AT THE BEGINNING OF EVERY STEP. IT IS THE MAXIMUM VALUE OF THE
          ESTIMATE FROM THE CURRENT STEP TO THE LAST STEP OF THE ANALYSIS, WITH UNSYMMETRIC SOLUTION TAKEN
          INTO ACCOUNT IF APPLICABLE. 
      (3) SINCE THE ESTIMATE IS BASED ON THE ACTIVE DEGREES OF FREEDOM IN THE FIRST ITERATION OF THE 
          CURRENT STEP, THE MEMORY ESTIMATE MIGHT BE SIGNIFICANTLY DIFFERENT THAN ACTUAL USAGE FOR 
          PROBLEMS WITH SUBSTANTIAL CHANGES IN ACTIVE DEGREES OF FREEDOM BETWEEN STEPS (OR EVEN WITHIN
          THE SAME STEP). EXAMPLES ARE: PROBLEMS WITH SIGNIFICANT CONTACT CHANGES, PROBLEMS WITH MODEL
          CHANGE, PROBLEMS WITH BOTH STATIC STEP AND STEADY STATE DYNAMIC PROCEDURES WHERE ACOUSTIC 
          ELEMENTS WILL ONLY BE ACTIVATED IN THE STEADY STATE DYNAMIC STEPS.
      (4) FOR MULTI-PROCESS EXECUTION, THE ESTIMATED VALUE OF FLOATING POINT OPERATIONS FOR EACH PROCESS
          IS BASED ON AN INITIAL SCHEDULING OF OPERATIONS AND MIGHT NOT REFLECT THE ACTUAL FLOATING 
          POINT OPERATIONS COMPLETED ON EACH PROCESS. OPERATIONS ARE DYNAMICALLY BALANCED DURING EXECUTION, 
          SO THE ACTUAL BALANCE OF OPERATIONS BETWEEN PROCESSES IS EXPECTED TO BE BETTER THAN THE ESTIMATE
          PRINTED HERE.
      (5) THE UPPER LIMIT OF MEMORY THAT CAN BE ALLOCATED BY ABAQUS WILL IN GENERAL DEPEND ON THE VALUE OF
          THE "MEMORY" PARAMETER AND THE AMOUNT OF PHYSICAL MEMORY AVAILABLE ON THE MACHINE. PLEASE SEE
          THE "ABAQUS ANALYSIS USER'S MANUAL" FOR MORE DETAILS. THE ACTUAL USAGE OF MEMORY AND OF DISK
          SPACE FOR SCRATCH DATA WILL DEPEND ON THIS UPPER LIMIT AS WELL AS THE MEMORY REQUIRED TO MINIMIZE
          I/O. IF THE MEMORY UPPER LIMIT IS GREATER THAN THE MEMORY REQUIRED TO MINIMIZE I/O, THEN THE ACTUAL
          MEMORY USAGE WILL BE CLOSE TO THE ESTIMATED "MEMORY TO MINIMIZE I/O" VALUE, AND THE SCRATCH DISK
          USAGE WILL BE CLOSE-TO-ZERO; OTHERWISE, THE ACTUAL MEMORY USED WILL BE CLOSE TO THE PREVIOUSLY
          MENTIONED MEMORY LIMIT, AND THE SCRATCH DISK USAGE WILL BE ROUGHLY PROPORTIONAL TO THE DIFFERENCE
          BETWEEN THE ESTIMATED "MEMORY TO MINIMIZE I/O" AND THE MEMORY UPPER LIMIT. HOWEVER ACCURATE
          ESTIMATE OF THE SCRATCH DISK SPACE IS NOT POSSIBLE.
      (6) USING "*RESTART, WRITE" CAN GENERATE A LARGE AMOUNT OF DATA WRITTEN IN THE WORK DIRECTORY.



                                   E L E M E N T   M A T R I X   O U T P U T





   ELEMENT MATRIX OUTPUT REQUESTS WILL BE PRINTED FOR ELEMENT SET ASSEMBLY_WHOLE_CUBE_ELEMENT IN 
   FILE C:\LocalUserData\User-data\nguyenb5\Abaqus-UEL-von-Mises-plasticity\(UMAT) 
   cube_C3D8_deformation\CUBE_C3D8_DEFORMATION_ELEMENT_STIFFNESS.mtx



                                   E L E M E N T   M A T R I X   O U T P U T





   ELEMENT MATRIX OUTPUT REQUESTS WILL BE PRINTED FOR ELEMENT SET ASSEMBLY_WHOLE_CUBE_ELEMENT IN 
   FILE C:\LocalUserData\User-data\nguyenb5\Abaqus-UEL-von-Mises-plasticity\(UMAT) 
   cube_C3D8_deformation\CUBE_C3D8_DEFORMATION_ELEMENT_STIFFNESS.mtx



                                   E L E M E N T   M A T R I X   O U T P U T





   ELEMENT MATRIX OUTPUT REQUESTS WILL BE PRINTED FOR ELEMENT SET ASSEMBLY_WHOLE_CUBE_ELEMENT IN 
   FILE C:\LocalUserData\User-data\nguyenb5\Abaqus-UEL-von-Mises-plasticity\(UMAT) 
   cube_C3D8_deformation\CUBE_C3D8_DEFORMATION_ELEMENT_STIFFNESS.mtx



                                   E L E M E N T   M A T R I X   O U T P U T





   ELEMENT MATRIX OUTPUT REQUESTS WILL BE PRINTED FOR ELEMENT SET ASSEMBLY_WHOLE_CUBE_ELEMENT IN 
   FILE C:\LocalUserData\User-data\nguyenb5\Abaqus-UEL-von-Mises-plasticity\(UMAT) 
   cube_C3D8_deformation\CUBE_C3D8_DEFORMATION_ELEMENT_STIFFNESS.mtx



                                   E L E M E N T   M A T R I X   O U T P U T





   ELEMENT MATRIX OUTPUT REQUESTS WILL BE PRINTED FOR ELEMENT SET ASSEMBLY_WHOLE_CUBE_ELEMENT IN 
   FILE C:\LocalUserData\User-data\nguyenb5\Abaqus-UEL-von-Mises-plasticity\(UMAT) 
   cube_C3D8_deformation\CUBE_C3D8_DEFORMATION_ELEMENT_STIFFNESS.mtx



                                   E L E M E N T   M A T R I X   O U T P U T





   ELEMENT MATRIX OUTPUT REQUESTS WILL BE PRINTED FOR ELEMENT SET ASSEMBLY_WHOLE_CUBE_ELEMENT IN 
   FILE C:\LocalUserData\User-data\nguyenb5\Abaqus-UEL-von-Mises-plasticity\(UMAT) 
   cube_C3D8_deformation\CUBE_C3D8_DEFORMATION_ELEMENT_STIFFNESS.mtx



                                   E L E M E N T   M A T R I X   O U T P U T





   ELEMENT MATRIX OUTPUT REQUESTS WILL BE PRINTED FOR ELEMENT SET ASSEMBLY_WHOLE_CUBE_ELEMENT IN 
   FILE C:\LocalUserData\User-data\nguyenb5\Abaqus-UEL-von-Mises-plasticity\(UMAT) 
   cube_C3D8_deformation\CUBE_C3D8_DEFORMATION_ELEMENT_STIFFNESS.mtx



                                   E L E M E N T   M A T R I X   O U T P U T





   ELEMENT MATRIX OUTPUT REQUESTS WILL BE PRINTED FOR ELEMENT SET ASSEMBLY_WHOLE_CUBE_ELEMENT IN 
   FILE C:\LocalUserData\User-data\nguyenb5\Abaqus-UEL-von-Mises-plasticity\(UMAT) 
   cube_C3D8_deformation\CUBE_C3D8_DEFORMATION_ELEMENT_STIFFNESS.mtx



                                   E L E M E N T   M A T R I X   O U T P U T





   ELEMENT MATRIX OUTPUT REQUESTS WILL BE PRINTED FOR ELEMENT SET ASSEMBLY_WHOLE_CUBE_ELEMENT IN 
   FILE C:\LocalUserData\User-data\nguyenb5\Abaqus-UEL-von-Mises-plasticity\(UMAT) 
   cube_C3D8_deformation\CUBE_C3D8_DEFORMATION_ELEMENT_STIFFNESS.mtx



                                   E L E M E N T   M A T R I X   O U T P U T





   ELEMENT MATRIX OUTPUT REQUESTS WILL BE PRINTED FOR ELEMENT SET ASSEMBLY_WHOLE_CUBE_ELEMENT IN 
   FILE C:\LocalUserData\User-data\nguyenb5\Abaqus-UEL-von-Mises-plasticity\(UMAT) 
   cube_C3D8_deformation\CUBE_C3D8_DEFORMATION_ELEMENT_STIFFNESS.mtx



                                   E L E M E N T   M A T R I X   O U T P U T





   ELEMENT MATRIX OUTPUT REQUESTS WILL BE PRINTED FOR ELEMENT SET ASSEMBLY_WHOLE_CUBE_ELEMENT IN 
   FILE C:\LocalUserData\User-data\nguyenb5\Abaqus-UEL-von-Mises-plasticity\(UMAT) 
   cube_C3D8_deformation\CUBE_C3D8_DEFORMATION_ELEMENT_STIFFNESS.mtx



                                   E L E M E N T   M A T R I X   O U T P U T





   ELEMENT MATRIX OUTPUT REQUESTS WILL BE PRINTED FOR ELEMENT SET ASSEMBLY_WHOLE_CUBE_ELEMENT IN 
   FILE C:\LocalUserData\User-data\nguyenb5\Abaqus-UEL-von-Mises-plasticity\(UMAT) 
   cube_C3D8_deformation\CUBE_C3D8_DEFORMATION_ELEMENT_STIFFNESS.mtx



                                   E L E M E N T   M A T R I X   O U T P U T





   ELEMENT MATRIX OUTPUT REQUESTS WILL BE PRINTED FOR ELEMENT SET ASSEMBLY_WHOLE_CUBE_ELEMENT IN 
   FILE C:\LocalUserData\User-data\nguyenb5\Abaqus-UEL-von-Mises-plasticity\(UMAT) 
   cube_C3D8_deformation\CUBE_C3D8_DEFORMATION_ELEMENT_STIFFNESS.mtx



                                   E L E M E N T   M A T R I X   O U T P U T





   ELEMENT MATRIX OUTPUT REQUESTS WILL BE PRINTED FOR ELEMENT SET ASSEMBLY_WHOLE_CUBE_ELEMENT IN 
   FILE C:\LocalUserData\User-data\nguyenb5\Abaqus-UEL-von-Mises-plasticity\(UMAT) 
   cube_C3D8_deformation\CUBE_C3D8_DEFORMATION_ELEMENT_STIFFNESS.mtx



                                   E L E M E N T   M A T R I X   O U T P U T





   ELEMENT MATRIX OUTPUT REQUESTS WILL BE PRINTED FOR ELEMENT SET ASSEMBLY_WHOLE_CUBE_ELEMENT IN 
   FILE C:\LocalUserData\User-data\nguyenb5\Abaqus-UEL-von-Mises-plasticity\(UMAT) 
   cube_C3D8_deformation\CUBE_C3D8_DEFORMATION_ELEMENT_STIFFNESS.mtx



                                   E L E M E N T   M A T R I X   O U T P U T





   ELEMENT MATRIX OUTPUT REQUESTS WILL BE PRINTED FOR ELEMENT SET ASSEMBLY_WHOLE_CUBE_ELEMENT IN 
   FILE C:\LocalUserData\User-data\nguyenb5\Abaqus-UEL-von-Mises-plasticity\(UMAT) 
   cube_C3D8_deformation\CUBE_C3D8_DEFORMATION_ELEMENT_STIFFNESS.mtx



                                   E L E M E N T   M A T R I X   O U T P U T





   ELEMENT MATRIX OUTPUT REQUESTS WILL BE PRINTED FOR ELEMENT SET ASSEMBLY_WHOLE_CUBE_ELEMENT IN 
   FILE C:\LocalUserData\User-data\nguyenb5\Abaqus-UEL-von-Mises-plasticity\(UMAT) 
   cube_C3D8_deformation\CUBE_C3D8_DEFORMATION_ELEMENT_STIFFNESS.mtx



                                   E L E M E N T   M A T R I X   O U T P U T





   ELEMENT MATRIX OUTPUT REQUESTS WILL BE PRINTED FOR ELEMENT SET ASSEMBLY_WHOLE_CUBE_ELEMENT IN 
   FILE C:\LocalUserData\User-data\nguyenb5\Abaqus-UEL-von-Mises-plasticity\(UMAT) 
   cube_C3D8_deformation\CUBE_C3D8_DEFORMATION_ELEMENT_STIFFNESS.mtx



                                   E L E M E N T   M A T R I X   O U T P U T





   ELEMENT MATRIX OUTPUT REQUESTS WILL BE PRINTED FOR ELEMENT SET ASSEMBLY_WHOLE_CUBE_ELEMENT IN 
   FILE C:\LocalUserData\User-data\nguyenb5\Abaqus-UEL-von-Mises-plasticity\(UMAT) 
   cube_C3D8_deformation\CUBE_C3D8_DEFORMATION_ELEMENT_STIFFNESS.mtx



                                   E L E M E N T   M A T R I X   O U T P U T





   ELEMENT MATRIX OUTPUT REQUESTS WILL BE PRINTED FOR ELEMENT SET ASSEMBLY_WHOLE_CUBE_ELEMENT IN 
   FILE C:\LocalUserData\User-data\nguyenb5\Abaqus-UEL-von-Mises-plasticity\(UMAT) 
   cube_C3D8_deformation\CUBE_C3D8_DEFORMATION_ELEMENT_STIFFNESS.mtx



                                   E L E M E N T   M A T R I X   O U T P U T





   ELEMENT MATRIX OUTPUT REQUESTS WILL BE PRINTED FOR ELEMENT SET ASSEMBLY_WHOLE_CUBE_ELEMENT IN 
   FILE C:\LocalUserData\User-data\nguyenb5\Abaqus-UEL-von-Mises-plasticity\(UMAT) 
   cube_C3D8_deformation\CUBE_C3D8_DEFORMATION_ELEMENT_STIFFNESS.mtx



                                   E L E M E N T   M A T R I X   O U T P U T





   ELEMENT MATRIX OUTPUT REQUESTS WILL BE PRINTED FOR ELEMENT SET ASSEMBLY_WHOLE_CUBE_ELEMENT IN 
   FILE C:\LocalUserData\User-data\nguyenb5\Abaqus-UEL-von-Mises-plasticity\(UMAT) 
   cube_C3D8_deformation\CUBE_C3D8_DEFORMATION_ELEMENT_STIFFNESS.mtx



                                   E L E M E N T   M A T R I X   O U T P U T





   ELEMENT MATRIX OUTPUT REQUESTS WILL BE PRINTED FOR ELEMENT SET ASSEMBLY_WHOLE_CUBE_ELEMENT IN 
   FILE C:\LocalUserData\User-data\nguyenb5\Abaqus-UEL-von-Mises-plasticity\(UMAT) 
   cube_C3D8_deformation\CUBE_C3D8_DEFORMATION_ELEMENT_STIFFNESS.mtx



                                   E L E M E N T   M A T R I X   O U T P U T





   ELEMENT MATRIX OUTPUT REQUESTS WILL BE PRINTED FOR ELEMENT SET ASSEMBLY_WHOLE_CUBE_ELEMENT IN 
   FILE C:\LocalUserData\User-data\nguyenb5\Abaqus-UEL-von-Mises-plasticity\(UMAT) 
   cube_C3D8_deformation\CUBE_C3D8_DEFORMATION_ELEMENT_STIFFNESS.mtx



                                   E L E M E N T   M A T R I X   O U T P U T





   ELEMENT MATRIX OUTPUT REQUESTS WILL BE PRINTED FOR ELEMENT SET ASSEMBLY_WHOLE_CUBE_ELEMENT IN 
   FILE C:\LocalUserData\User-data\nguyenb5\Abaqus-UEL-von-Mises-plasticity\(UMAT) 
   cube_C3D8_deformation\CUBE_C3D8_DEFORMATION_ELEMENT_STIFFNESS.mtx



                                   E L E M E N T   M A T R I X   O U T P U T





   ELEMENT MATRIX OUTPUT REQUESTS WILL BE PRINTED FOR ELEMENT SET ASSEMBLY_WHOLE_CUBE_ELEMENT IN 
   FILE C:\LocalUserData\User-data\nguyenb5\Abaqus-UEL-von-Mises-plasticity\(UMAT) 
   cube_C3D8_deformation\CUBE_C3D8_DEFORMATION_ELEMENT_STIFFNESS.mtx



                                   E L E M E N T   M A T R I X   O U T P U T





   ELEMENT MATRIX OUTPUT REQUESTS WILL BE PRINTED FOR ELEMENT SET ASSEMBLY_WHOLE_CUBE_ELEMENT IN 
   FILE C:\LocalUserData\User-data\nguyenb5\Abaqus-UEL-von-Mises-plasticity\(UMAT) 
   cube_C3D8_deformation\CUBE_C3D8_DEFORMATION_ELEMENT_STIFFNESS.mtx



                                   E L E M E N T   M A T R I X   O U T P U T





   ELEMENT MATRIX OUTPUT REQUESTS WILL BE PRINTED FOR ELEMENT SET ASSEMBLY_WHOLE_CUBE_ELEMENT IN 
   FILE C:\LocalUserData\User-data\nguyenb5\Abaqus-UEL-von-Mises-plasticity\(UMAT) 
   cube_C3D8_deformation\CUBE_C3D8_DEFORMATION_ELEMENT_STIFFNESS.mtx



                                   E L E M E N T   M A T R I X   O U T P U T





   ELEMENT MATRIX OUTPUT REQUESTS WILL BE PRINTED FOR ELEMENT SET ASSEMBLY_WHOLE_CUBE_ELEMENT IN 
   FILE C:\LocalUserData\User-data\nguyenb5\Abaqus-UEL-von-Mises-plasticity\(UMAT) 
   cube_C3D8_deformation\CUBE_C3D8_DEFORMATION_ELEMENT_STIFFNESS.mtx



                                   E L E M E N T   M A T R I X   O U T P U T





   ELEMENT MATRIX OUTPUT REQUESTS WILL BE PRINTED FOR ELEMENT SET ASSEMBLY_WHOLE_CUBE_ELEMENT IN 
   FILE C:\LocalUserData\User-data\nguyenb5\Abaqus-UEL-von-Mises-plasticity\(UMAT) 
   cube_C3D8_deformation\CUBE_C3D8_DEFORMATION_ELEMENT_STIFFNESS.mtx



                                   E L E M E N T   M A T R I X   O U T P U T





   ELEMENT MATRIX OUTPUT REQUESTS WILL BE PRINTED FOR ELEMENT SET ASSEMBLY_WHOLE_CUBE_ELEMENT IN 
   FILE C:\LocalUserData\User-data\nguyenb5\Abaqus-UEL-von-Mises-plasticity\(UMAT) 
   cube_C3D8_deformation\CUBE_C3D8_DEFORMATION_ELEMENT_STIFFNESS.mtx



                                   E L E M E N T   M A T R I X   O U T P U T





   ELEMENT MATRIX OUTPUT REQUESTS WILL BE PRINTED FOR ELEMENT SET ASSEMBLY_WHOLE_CUBE_ELEMENT IN 
   FILE C:\LocalUserData\User-data\nguyenb5\Abaqus-UEL-von-Mises-plasticity\(UMAT) 
   cube_C3D8_deformation\CUBE_C3D8_DEFORMATION_ELEMENT_STIFFNESS.mtx



                                   E L E M E N T   M A T R I X   O U T P U T





   ELEMENT MATRIX OUTPUT REQUESTS WILL BE PRINTED FOR ELEMENT SET ASSEMBLY_WHOLE_CUBE_ELEMENT IN 
   FILE C:\LocalUserData\User-data\nguyenb5\Abaqus-UEL-von-Mises-plasticity\(UMAT) 
   cube_C3D8_deformation\CUBE_C3D8_DEFORMATION_ELEMENT_STIFFNESS.mtx



                                   E L E M E N T   M A T R I X   O U T P U T





   ELEMENT MATRIX OUTPUT REQUESTS WILL BE PRINTED FOR ELEMENT SET ASSEMBLY_WHOLE_CUBE_ELEMENT IN 
   FILE C:\LocalUserData\User-data\nguyenb5\Abaqus-UEL-von-Mises-plasticity\(UMAT) 
   cube_C3D8_deformation\CUBE_C3D8_DEFORMATION_ELEMENT_STIFFNESS.mtx



                                   E L E M E N T   M A T R I X   O U T P U T





   ELEMENT MATRIX OUTPUT REQUESTS WILL BE PRINTED FOR ELEMENT SET ASSEMBLY_WHOLE_CUBE_ELEMENT IN 
   FILE C:\LocalUserData\User-data\nguyenb5\Abaqus-UEL-von-Mises-plasticity\(UMAT) 
   cube_C3D8_deformation\CUBE_C3D8_DEFORMATION_ELEMENT_STIFFNESS.mtx



                                   E L E M E N T   M A T R I X   O U T P U T





   ELEMENT MATRIX OUTPUT REQUESTS WILL BE PRINTED FOR ELEMENT SET ASSEMBLY_WHOLE_CUBE_ELEMENT IN 
   FILE C:\LocalUserData\User-data\nguyenb5\Abaqus-UEL-von-Mises-plasticity\(UMAT) 
   cube_C3D8_deformation\CUBE_C3D8_DEFORMATION_ELEMENT_STIFFNESS.mtx



                                   E L E M E N T   M A T R I X   O U T P U T





   ELEMENT MATRIX OUTPUT REQUESTS WILL BE PRINTED FOR ELEMENT SET ASSEMBLY_WHOLE_CUBE_ELEMENT IN 
   FILE C:\LocalUserData\User-data\nguyenb5\Abaqus-UEL-von-Mises-plasticity\(UMAT) 
   cube_C3D8_deformation\CUBE_C3D8_DEFORMATION_ELEMENT_STIFFNESS.mtx



                                   E L E M E N T   M A T R I X   O U T P U T





   ELEMENT MATRIX OUTPUT REQUESTS WILL BE PRINTED FOR ELEMENT SET ASSEMBLY_WHOLE_CUBE_ELEMENT IN 
   FILE C:\LocalUserData\User-data\nguyenb5\Abaqus-UEL-von-Mises-plasticity\(UMAT) 
   cube_C3D8_deformation\CUBE_C3D8_DEFORMATION_ELEMENT_STIFFNESS.mtx



                                   E L E M E N T   M A T R I X   O U T P U T





   ELEMENT MATRIX OUTPUT REQUESTS WILL BE PRINTED FOR ELEMENT SET ASSEMBLY_WHOLE_CUBE_ELEMENT IN 
   FILE C:\LocalUserData\User-data\nguyenb5\Abaqus-UEL-von-Mises-plasticity\(UMAT) 
   cube_C3D8_deformation\CUBE_C3D8_DEFORMATION_ELEMENT_STIFFNESS.mtx



                                   E L E M E N T   M A T R I X   O U T P U T





   ELEMENT MATRIX OUTPUT REQUESTS WILL BE PRINTED FOR ELEMENT SET ASSEMBLY_WHOLE_CUBE_ELEMENT IN 
   FILE C:\LocalUserData\User-data\nguyenb5\Abaqus-UEL-von-Mises-plasticity\(UMAT) 
   cube_C3D8_deformation\CUBE_C3D8_DEFORMATION_ELEMENT_STIFFNESS.mtx



                                   E L E M E N T   M A T R I X   O U T P U T





   ELEMENT MATRIX OUTPUT REQUESTS WILL BE PRINTED FOR ELEMENT SET ASSEMBLY_WHOLE_CUBE_ELEMENT IN 
   FILE C:\LocalUserData\User-data\nguyenb5\Abaqus-UEL-von-Mises-plasticity\(UMAT) 
   cube_C3D8_deformation\CUBE_C3D8_DEFORMATION_ELEMENT_STIFFNESS.mtx



                                   E L E M E N T   M A T R I X   O U T P U T





   ELEMENT MATRIX OUTPUT REQUESTS WILL BE PRINTED FOR ELEMENT SET ASSEMBLY_WHOLE_CUBE_ELEMENT IN 
   FILE C:\LocalUserData\User-data\nguyenb5\Abaqus-UEL-von-Mises-plasticity\(UMAT) 
   cube_C3D8_deformation\CUBE_C3D8_DEFORMATION_ELEMENT_STIFFNESS.mtx



                                   E L E M E N T   M A T R I X   O U T P U T





   ELEMENT MATRIX OUTPUT REQUESTS WILL BE PRINTED FOR ELEMENT SET ASSEMBLY_WHOLE_CUBE_ELEMENT IN 
   FILE C:\LocalUserData\User-data\nguyenb5\Abaqus-UEL-von-Mises-plasticity\(UMAT) 
   cube_C3D8_deformation\CUBE_C3D8_DEFORMATION_ELEMENT_STIFFNESS.mtx



                                   E L E M E N T   M A T R I X   O U T P U T





   ELEMENT MATRIX OUTPUT REQUESTS WILL BE PRINTED FOR ELEMENT SET ASSEMBLY_WHOLE_CUBE_ELEMENT IN 
   FILE C:\LocalUserData\User-data\nguyenb5\Abaqus-UEL-von-Mises-plasticity\(UMAT) 
   cube_C3D8_deformation\CUBE_C3D8_DEFORMATION_ELEMENT_STIFFNESS.mtx



                                   E L E M E N T   M A T R I X   O U T P U T





   ELEMENT MATRIX OUTPUT REQUESTS WILL BE PRINTED FOR ELEMENT SET ASSEMBLY_WHOLE_CUBE_ELEMENT IN 
   FILE C:\LocalUserData\User-data\nguyenb5\Abaqus-UEL-von-Mises-plasticity\(UMAT) 
   cube_C3D8_deformation\CUBE_C3D8_DEFORMATION_ELEMENT_STIFFNESS.mtx



                                   E L E M E N T   M A T R I X   O U T P U T





   ELEMENT MATRIX OUTPUT REQUESTS WILL BE PRINTED FOR ELEMENT SET ASSEMBLY_WHOLE_CUBE_ELEMENT IN 
   FILE C:\LocalUserData\User-data\nguyenb5\Abaqus-UEL-von-Mises-plasticity\(UMAT) 
   cube_C3D8_deformation\CUBE_C3D8_DEFORMATION_ELEMENT_STIFFNESS.mtx



                                   E L E M E N T   M A T R I X   O U T P U T





   ELEMENT MATRIX OUTPUT REQUESTS WILL BE PRINTED FOR ELEMENT SET ASSEMBLY_WHOLE_CUBE_ELEMENT IN 
   FILE C:\LocalUserData\User-data\nguyenb5\Abaqus-UEL-von-Mises-plasticity\(UMAT) 
   cube_C3D8_deformation\CUBE_C3D8_DEFORMATION_ELEMENT_STIFFNESS.mtx



                                   E L E M E N T   M A T R I X   O U T P U T





   ELEMENT MATRIX OUTPUT REQUESTS WILL BE PRINTED FOR ELEMENT SET ASSEMBLY_WHOLE_CUBE_ELEMENT IN 
   FILE C:\LocalUserData\User-data\nguyenb5\Abaqus-UEL-von-Mises-plasticity\(UMAT) 
   cube_C3D8_deformation\CUBE_C3D8_DEFORMATION_ELEMENT_STIFFNESS.mtx



                                   E L E M E N T   M A T R I X   O U T P U T





   ELEMENT MATRIX OUTPUT REQUESTS WILL BE PRINTED FOR ELEMENT SET ASSEMBLY_WHOLE_CUBE_ELEMENT IN 
   FILE C:\LocalUserData\User-data\nguyenb5\Abaqus-UEL-von-Mises-plasticity\(UMAT) 
   cube_C3D8_deformation\CUBE_C3D8_DEFORMATION_ELEMENT_STIFFNESS.mtx



                                   E L E M E N T   M A T R I X   O U T P U T





   ELEMENT MATRIX OUTPUT REQUESTS WILL BE PRINTED FOR ELEMENT SET ASSEMBLY_WHOLE_CUBE_ELEMENT IN 
   FILE C:\LocalUserData\User-data\nguyenb5\Abaqus-UEL-von-Mises-plasticity\(UMAT) 
   cube_C3D8_deformation\CUBE_C3D8_DEFORMATION_ELEMENT_STIFFNESS.mtx



                                   E L E M E N T   M A T R I X   O U T P U T





   ELEMENT MATRIX OUTPUT REQUESTS WILL BE PRINTED FOR ELEMENT SET ASSEMBLY_WHOLE_CUBE_ELEMENT IN 
   FILE C:\LocalUserData\User-data\nguyenb5\Abaqus-UEL-von-Mises-plasticity\(UMAT) 
   cube_C3D8_deformation\CUBE_C3D8_DEFORMATION_ELEMENT_STIFFNESS.mtx



                                   E L E M E N T   M A T R I X   O U T P U T





   ELEMENT MATRIX OUTPUT REQUESTS WILL BE PRINTED FOR ELEMENT SET ASSEMBLY_WHOLE_CUBE_ELEMENT IN 
   FILE C:\LocalUserData\User-data\nguyenb5\Abaqus-UEL-von-Mises-plasticity\(UMAT) 
   cube_C3D8_deformation\CUBE_C3D8_DEFORMATION_ELEMENT_STIFFNESS.mtx



                                   E L E M E N T   M A T R I X   O U T P U T





   ELEMENT MATRIX OUTPUT REQUESTS WILL BE PRINTED FOR ELEMENT SET ASSEMBLY_WHOLE_CUBE_ELEMENT IN 
   FILE C:\LocalUserData\User-data\nguyenb5\Abaqus-UEL-von-Mises-plasticity\(UMAT) 
   cube_C3D8_deformation\CUBE_C3D8_DEFORMATION_ELEMENT_STIFFNESS.mtx



                                   E L E M E N T   M A T R I X   O U T P U T





   ELEMENT MATRIX OUTPUT REQUESTS WILL BE PRINTED FOR ELEMENT SET ASSEMBLY_WHOLE_CUBE_ELEMENT IN 
   FILE C:\LocalUserData\User-data\nguyenb5\Abaqus-UEL-von-Mises-plasticity\(UMAT) 
   cube_C3D8_deformation\CUBE_C3D8_DEFORMATION_ELEMENT_STIFFNESS.mtx



                                   E L E M E N T   M A T R I X   O U T P U T





   ELEMENT MATRIX OUTPUT REQUESTS WILL BE PRINTED FOR ELEMENT SET ASSEMBLY_WHOLE_CUBE_ELEMENT IN 
   FILE C:\LocalUserData\User-data\nguyenb5\Abaqus-UEL-von-Mises-plasticity\(UMAT) 
   cube_C3D8_deformation\CUBE_C3D8_DEFORMATION_ELEMENT_STIFFNESS.mtx



                                   E L E M E N T   M A T R I X   O U T P U T





   ELEMENT MATRIX OUTPUT REQUESTS WILL BE PRINTED FOR ELEMENT SET ASSEMBLY_WHOLE_CUBE_ELEMENT IN 
   FILE C:\LocalUserData\User-data\nguyenb5\Abaqus-UEL-von-Mises-plasticity\(UMAT) 
   cube_C3D8_deformation\CUBE_C3D8_DEFORMATION_ELEMENT_STIFFNESS.mtx



                                   E L E M E N T   M A T R I X   O U T P U T





   ELEMENT MATRIX OUTPUT REQUESTS WILL BE PRINTED FOR ELEMENT SET ASSEMBLY_WHOLE_CUBE_ELEMENT IN 
   FILE C:\LocalUserData\User-data\nguyenb5\Abaqus-UEL-von-Mises-plasticity\(UMAT) 
   cube_C3D8_deformation\CUBE_C3D8_DEFORMATION_ELEMENT_STIFFNESS.mtx



                                   E L E M E N T   M A T R I X   O U T P U T





   ELEMENT MATRIX OUTPUT REQUESTS WILL BE PRINTED FOR ELEMENT SET ASSEMBLY_WHOLE_CUBE_ELEMENT IN 
   FILE C:\LocalUserData\User-data\nguyenb5\Abaqus-UEL-von-Mises-plasticity\(UMAT) 
   cube_C3D8_deformation\CUBE_C3D8_DEFORMATION_ELEMENT_STIFFNESS.mtx



                                   E L E M E N T   M A T R I X   O U T P U T





   ELEMENT MATRIX OUTPUT REQUESTS WILL BE PRINTED FOR ELEMENT SET ASSEMBLY_WHOLE_CUBE_ELEMENT IN 
   FILE C:\LocalUserData\User-data\nguyenb5\Abaqus-UEL-von-Mises-plasticity\(UMAT) 
   cube_C3D8_deformation\CUBE_C3D8_DEFORMATION_ELEMENT_STIFFNESS.mtx



                                   E L E M E N T   M A T R I X   O U T P U T





   ELEMENT MATRIX OUTPUT REQUESTS WILL BE PRINTED FOR ELEMENT SET ASSEMBLY_WHOLE_CUBE_ELEMENT IN 
   FILE C:\LocalUserData\User-data\nguyenb5\Abaqus-UEL-von-Mises-plasticity\(UMAT) 
   cube_C3D8_deformation\CUBE_C3D8_DEFORMATION_ELEMENT_STIFFNESS.mtx



                                   E L E M E N T   M A T R I X   O U T P U T





   ELEMENT MATRIX OUTPUT REQUESTS WILL BE PRINTED FOR ELEMENT SET ASSEMBLY_WHOLE_CUBE_ELEMENT IN 
   FILE C:\LocalUserData\User-data\nguyenb5\Abaqus-UEL-von-Mises-plasticity\(UMAT) 
   cube_C3D8_deformation\CUBE_C3D8_DEFORMATION_ELEMENT_STIFFNESS.mtx



                                   E L E M E N T   M A T R I X   O U T P U T





   ELEMENT MATRIX OUTPUT REQUESTS WILL BE PRINTED FOR ELEMENT SET ASSEMBLY_WHOLE_CUBE_ELEMENT IN 
   FILE C:\LocalUserData\User-data\nguyenb5\Abaqus-UEL-von-Mises-plasticity\(UMAT) 
   cube_C3D8_deformation\CUBE_C3D8_DEFORMATION_ELEMENT_STIFFNESS.mtx



                                   E L E M E N T   M A T R I X   O U T P U T





   ELEMENT MATRIX OUTPUT REQUESTS WILL BE PRINTED FOR ELEMENT SET ASSEMBLY_WHOLE_CUBE_ELEMENT IN 
   FILE C:\LocalUserData\User-data\nguyenb5\Abaqus-UEL-von-Mises-plasticity\(UMAT) 
   cube_C3D8_deformation\CUBE_C3D8_DEFORMATION_ELEMENT_STIFFNESS.mtx



                                   E L E M E N T   M A T R I X   O U T P U T





   ELEMENT MATRIX OUTPUT REQUESTS WILL BE PRINTED FOR ELEMENT SET ASSEMBLY_WHOLE_CUBE_ELEMENT IN 
   FILE C:\LocalUserData\User-data\nguyenb5\Abaqus-UEL-von-Mises-plasticity\(UMAT) 
   cube_C3D8_deformation\CUBE_C3D8_DEFORMATION_ELEMENT_STIFFNESS.mtx



                                   E L E M E N T   M A T R I X   O U T P U T





   ELEMENT MATRIX OUTPUT REQUESTS WILL BE PRINTED FOR ELEMENT SET ASSEMBLY_WHOLE_CUBE_ELEMENT IN 
   FILE C:\LocalUserData\User-data\nguyenb5\Abaqus-UEL-von-Mises-plasticity\(UMAT) 
   cube_C3D8_deformation\CUBE_C3D8_DEFORMATION_ELEMENT_STIFFNESS.mtx



                                   E L E M E N T   M A T R I X   O U T P U T





   ELEMENT MATRIX OUTPUT REQUESTS WILL BE PRINTED FOR ELEMENT SET ASSEMBLY_WHOLE_CUBE_ELEMENT IN 
   FILE C:\LocalUserData\User-data\nguyenb5\Abaqus-UEL-von-Mises-plasticity\(UMAT) 
   cube_C3D8_deformation\CUBE_C3D8_DEFORMATION_ELEMENT_STIFFNESS.mtx



                                   E L E M E N T   M A T R I X   O U T P U T





   ELEMENT MATRIX OUTPUT REQUESTS WILL BE PRINTED FOR ELEMENT SET ASSEMBLY_WHOLE_CUBE_ELEMENT IN 
   FILE C:\LocalUserData\User-data\nguyenb5\Abaqus-UEL-von-Mises-plasticity\(UMAT) 
   cube_C3D8_deformation\CUBE_C3D8_DEFORMATION_ELEMENT_STIFFNESS.mtx



                                   E L E M E N T   M A T R I X   O U T P U T





   ELEMENT MATRIX OUTPUT REQUESTS WILL BE PRINTED FOR ELEMENT SET ASSEMBLY_WHOLE_CUBE_ELEMENT IN 
   FILE C:\LocalUserData\User-data\nguyenb5\Abaqus-UEL-von-Mises-plasticity\(UMAT) 
   cube_C3D8_deformation\CUBE_C3D8_DEFORMATION_ELEMENT_STIFFNESS.mtx



                                   E L E M E N T   M A T R I X   O U T P U T





   ELEMENT MATRIX OUTPUT REQUESTS WILL BE PRINTED FOR ELEMENT SET ASSEMBLY_WHOLE_CUBE_ELEMENT IN 
   FILE C:\LocalUserData\User-data\nguyenb5\Abaqus-UEL-von-Mises-plasticity\(UMAT) 
   cube_C3D8_deformation\CUBE_C3D8_DEFORMATION_ELEMENT_STIFFNESS.mtx



                                   E L E M E N T   M A T R I X   O U T P U T





   ELEMENT MATRIX OUTPUT REQUESTS WILL BE PRINTED FOR ELEMENT SET ASSEMBLY_WHOLE_CUBE_ELEMENT IN 
   FILE C:\LocalUserData\User-data\nguyenb5\Abaqus-UEL-von-Mises-plasticity\(UMAT) 
   cube_C3D8_deformation\CUBE_C3D8_DEFORMATION_ELEMENT_STIFFNESS.mtx



                                   E L E M E N T   M A T R I X   O U T P U T





   ELEMENT MATRIX OUTPUT REQUESTS WILL BE PRINTED FOR ELEMENT SET ASSEMBLY_WHOLE_CUBE_ELEMENT IN 
   FILE C:\LocalUserData\User-data\nguyenb5\Abaqus-UEL-von-Mises-plasticity\(UMAT) 
   cube_C3D8_deformation\CUBE_C3D8_DEFORMATION_ELEMENT_STIFFNESS.mtx



                                   E L E M E N T   M A T R I X   O U T P U T





   ELEMENT MATRIX OUTPUT REQUESTS WILL BE PRINTED FOR ELEMENT SET ASSEMBLY_WHOLE_CUBE_ELEMENT IN 
   FILE C:\LocalUserData\User-data\nguyenb5\Abaqus-UEL-von-Mises-plasticity\(UMAT) 
   cube_C3D8_deformation\CUBE_C3D8_DEFORMATION_ELEMENT_STIFFNESS.mtx



                                   E L E M E N T   M A T R I X   O U T P U T





   ELEMENT MATRIX OUTPUT REQUESTS WILL BE PRINTED FOR ELEMENT SET ASSEMBLY_WHOLE_CUBE_ELEMENT IN 
   FILE C:\LocalUserData\User-data\nguyenb5\Abaqus-UEL-von-Mises-plasticity\(UMAT) 
   cube_C3D8_deformation\CUBE_C3D8_DEFORMATION_ELEMENT_STIFFNESS.mtx



                                   E L E M E N T   M A T R I X   O U T P U T





   ELEMENT MATRIX OUTPUT REQUESTS WILL BE PRINTED FOR ELEMENT SET ASSEMBLY_WHOLE_CUBE_ELEMENT IN 
   FILE C:\LocalUserData\User-data\nguyenb5\Abaqus-UEL-von-Mises-plasticity\(UMAT) 
   cube_C3D8_deformation\CUBE_C3D8_DEFORMATION_ELEMENT_STIFFNESS.mtx



                                   E L E M E N T   M A T R I X   O U T P U T





   ELEMENT MATRIX OUTPUT REQUESTS WILL BE PRINTED FOR ELEMENT SET ASSEMBLY_WHOLE_CUBE_ELEMENT IN 
   FILE C:\LocalUserData\User-data\nguyenb5\Abaqus-UEL-von-Mises-plasticity\(UMAT) 
   cube_C3D8_deformation\CUBE_C3D8_DEFORMATION_ELEMENT_STIFFNESS.mtx



                                   E L E M E N T   M A T R I X   O U T P U T





   ELEMENT MATRIX OUTPUT REQUESTS WILL BE PRINTED FOR ELEMENT SET ASSEMBLY_WHOLE_CUBE_ELEMENT IN 
   FILE C:\LocalUserData\User-data\nguyenb5\Abaqus-UEL-von-Mises-plasticity\(UMAT) 
   cube_C3D8_deformation\CUBE_C3D8_DEFORMATION_ELEMENT_STIFFNESS.mtx



                                   E L E M E N T   M A T R I X   O U T P U T





   ELEMENT MATRIX OUTPUT REQUESTS WILL BE PRINTED FOR ELEMENT SET ASSEMBLY_WHOLE_CUBE_ELEMENT IN 
   FILE C:\LocalUserData\User-data\nguyenb5\Abaqus-UEL-von-Mises-plasticity\(UMAT) 
   cube_C3D8_deformation\CUBE_C3D8_DEFORMATION_ELEMENT_STIFFNESS.mtx



                                   E L E M E N T   M A T R I X   O U T P U T





   ELEMENT MATRIX OUTPUT REQUESTS WILL BE PRINTED FOR ELEMENT SET ASSEMBLY_WHOLE_CUBE_ELEMENT IN 
   FILE C:\LocalUserData\User-data\nguyenb5\Abaqus-UEL-von-Mises-plasticity\(UMAT) 
   cube_C3D8_deformation\CUBE_C3D8_DEFORMATION_ELEMENT_STIFFNESS.mtx



                                   E L E M E N T   M A T R I X   O U T P U T





   ELEMENT MATRIX OUTPUT REQUESTS WILL BE PRINTED FOR ELEMENT SET ASSEMBLY_WHOLE_CUBE_ELEMENT IN 
   FILE C:\LocalUserData\User-data\nguyenb5\Abaqus-UEL-von-Mises-plasticity\(UMAT) 
   cube_C3D8_deformation\CUBE_C3D8_DEFORMATION_ELEMENT_STIFFNESS.mtx



                                   E L E M E N T   M A T R I X   O U T P U T





   ELEMENT MATRIX OUTPUT REQUESTS WILL BE PRINTED FOR ELEMENT SET ASSEMBLY_WHOLE_CUBE_ELEMENT IN 
   FILE C:\LocalUserData\User-data\nguyenb5\Abaqus-UEL-von-Mises-plasticity\(UMAT) 
   cube_C3D8_deformation\CUBE_C3D8_DEFORMATION_ELEMENT_STIFFNESS.mtx



                                   E L E M E N T   M A T R I X   O U T P U T





   ELEMENT MATRIX OUTPUT REQUESTS WILL BE PRINTED FOR ELEMENT SET ASSEMBLY_WHOLE_CUBE_ELEMENT IN 
   FILE C:\LocalUserData\User-data\nguyenb5\Abaqus-UEL-von-Mises-plasticity\(UMAT) 
   cube_C3D8_deformation\CUBE_C3D8_DEFORMATION_ELEMENT_STIFFNESS.mtx



                                   E L E M E N T   M A T R I X   O U T P U T





   ELEMENT MATRIX OUTPUT REQUESTS WILL BE PRINTED FOR ELEMENT SET ASSEMBLY_WHOLE_CUBE_ELEMENT IN 
   FILE C:\LocalUserData\User-data\nguyenb5\Abaqus-UEL-von-Mises-plasticity\(UMAT) 
   cube_C3D8_deformation\CUBE_C3D8_DEFORMATION_ELEMENT_STIFFNESS.mtx



                                   E L E M E N T   M A T R I X   O U T P U T





   ELEMENT MATRIX OUTPUT REQUESTS WILL BE PRINTED FOR ELEMENT SET ASSEMBLY_WHOLE_CUBE_ELEMENT IN 
   FILE C:\LocalUserData\User-data\nguyenb5\Abaqus-UEL-von-Mises-plasticity\(UMAT) 
   cube_C3D8_deformation\CUBE_C3D8_DEFORMATION_ELEMENT_STIFFNESS.mtx



                                   E L E M E N T   M A T R I X   O U T P U T





   ELEMENT MATRIX OUTPUT REQUESTS WILL BE PRINTED FOR ELEMENT SET ASSEMBLY_WHOLE_CUBE_ELEMENT IN 
   FILE C:\LocalUserData\User-data\nguyenb5\Abaqus-UEL-von-Mises-plasticity\(UMAT) 
   cube_C3D8_deformation\CUBE_C3D8_DEFORMATION_ELEMENT_STIFFNESS.mtx



                                   E L E M E N T   M A T R I X   O U T P U T





   ELEMENT MATRIX OUTPUT REQUESTS WILL BE PRINTED FOR ELEMENT SET ASSEMBLY_WHOLE_CUBE_ELEMENT IN 
   FILE C:\LocalUserData\User-data\nguyenb5\Abaqus-UEL-von-Mises-plasticity\(UMAT) 
   cube_C3D8_deformation\CUBE_C3D8_DEFORMATION_ELEMENT_STIFFNESS.mtx



                                   E L E M E N T   M A T R I X   O U T P U T





   ELEMENT MATRIX OUTPUT REQUESTS WILL BE PRINTED FOR ELEMENT SET ASSEMBLY_WHOLE_CUBE_ELEMENT IN 
   FILE C:\LocalUserData\User-data\nguyenb5\Abaqus-UEL-von-Mises-plasticity\(UMAT) 
   cube_C3D8_deformation\CUBE_C3D8_DEFORMATION_ELEMENT_STIFFNESS.mtx



                                   E L E M E N T   M A T R I X   O U T P U T





   ELEMENT MATRIX OUTPUT REQUESTS WILL BE PRINTED FOR ELEMENT SET ASSEMBLY_WHOLE_CUBE_ELEMENT IN 
   FILE C:\LocalUserData\User-data\nguyenb5\Abaqus-UEL-von-Mises-plasticity\(UMAT) 
   cube_C3D8_deformation\CUBE_C3D8_DEFORMATION_ELEMENT_STIFFNESS.mtx



                                   E L E M E N T   M A T R I X   O U T P U T





   ELEMENT MATRIX OUTPUT REQUESTS WILL BE PRINTED FOR ELEMENT SET ASSEMBLY_WHOLE_CUBE_ELEMENT IN 
   FILE C:\LocalUserData\User-data\nguyenb5\Abaqus-UEL-von-Mises-plasticity\(UMAT) 
   cube_C3D8_deformation\CUBE_C3D8_DEFORMATION_ELEMENT_STIFFNESS.mtx



                                   E L E M E N T   M A T R I X   O U T P U T





   ELEMENT MATRIX OUTPUT REQUESTS WILL BE PRINTED FOR ELEMENT SET ASSEMBLY_WHOLE_CUBE_ELEMENT IN 
   FILE C:\LocalUserData\User-data\nguyenb5\Abaqus-UEL-von-Mises-plasticity\(UMAT) 
   cube_C3D8_deformation\CUBE_C3D8_DEFORMATION_ELEMENT_STIFFNESS.mtx



                                   E L E M E N T   M A T R I X   O U T P U T





   ELEMENT MATRIX OUTPUT REQUESTS WILL BE PRINTED FOR ELEMENT SET ASSEMBLY_WHOLE_CUBE_ELEMENT IN 
   FILE C:\LocalUserData\User-data\nguyenb5\Abaqus-UEL-von-Mises-plasticity\(UMAT) 
   cube_C3D8_deformation\CUBE_C3D8_DEFORMATION_ELEMENT_STIFFNESS.mtx



                                   E L E M E N T   M A T R I X   O U T P U T





   ELEMENT MATRIX OUTPUT REQUESTS WILL BE PRINTED FOR ELEMENT SET ASSEMBLY_WHOLE_CUBE_ELEMENT IN 
   FILE C:\LocalUserData\User-data\nguyenb5\Abaqus-UEL-von-Mises-plasticity\(UMAT) 
   cube_C3D8_deformation\CUBE_C3D8_DEFORMATION_ELEMENT_STIFFNESS.mtx



                                   E L E M E N T   M A T R I X   O U T P U T





   ELEMENT MATRIX OUTPUT REQUESTS WILL BE PRINTED FOR ELEMENT SET ASSEMBLY_WHOLE_CUBE_ELEMENT IN 
   FILE C:\LocalUserData\User-data\nguyenb5\Abaqus-UEL-von-Mises-plasticity\(UMAT) 
   cube_C3D8_deformation\CUBE_C3D8_DEFORMATION_ELEMENT_STIFFNESS.mtx



                                   E L E M E N T   M A T R I X   O U T P U T





   ELEMENT MATRIX OUTPUT REQUESTS WILL BE PRINTED FOR ELEMENT SET ASSEMBLY_WHOLE_CUBE_ELEMENT IN 
   FILE C:\LocalUserData\User-data\nguyenb5\Abaqus-UEL-von-Mises-plasticity\(UMAT) 
   cube_C3D8_deformation\CUBE_C3D8_DEFORMATION_ELEMENT_STIFFNESS.mtx



                                   E L E M E N T   M A T R I X   O U T P U T





   ELEMENT MATRIX OUTPUT REQUESTS WILL BE PRINTED FOR ELEMENT SET ASSEMBLY_WHOLE_CUBE_ELEMENT IN 
   FILE C:\LocalUserData\User-data\nguyenb5\Abaqus-UEL-von-Mises-plasticity\(UMAT) 
   cube_C3D8_deformation\CUBE_C3D8_DEFORMATION_ELEMENT_STIFFNESS.mtx



                                   E L E M E N T   M A T R I X   O U T P U T





   ELEMENT MATRIX OUTPUT REQUESTS WILL BE PRINTED FOR ELEMENT SET ASSEMBLY_WHOLE_CUBE_ELEMENT IN 
   FILE C:\LocalUserData\User-data\nguyenb5\Abaqus-UEL-von-Mises-plasticity\(UMAT) 
   cube_C3D8_deformation\CUBE_C3D8_DEFORMATION_ELEMENT_STIFFNESS.mtx



                                   E L E M E N T   M A T R I X   O U T P U T





   ELEMENT MATRIX OUTPUT REQUESTS WILL BE PRINTED FOR ELEMENT SET ASSEMBLY_WHOLE_CUBE_ELEMENT IN 
   FILE C:\LocalUserData\User-data\nguyenb5\Abaqus-UEL-von-Mises-plasticity\(UMAT) 
   cube_C3D8_deformation\CUBE_C3D8_DEFORMATION_ELEMENT_STIFFNESS.mtx



                                   E L E M E N T   M A T R I X   O U T P U T





   ELEMENT MATRIX OUTPUT REQUESTS WILL BE PRINTED FOR ELEMENT SET ASSEMBLY_WHOLE_CUBE_ELEMENT IN 
   FILE C:\LocalUserData\User-data\nguyenb5\Abaqus-UEL-von-Mises-plasticity\(UMAT) 
   cube_C3D8_deformation\CUBE_C3D8_DEFORMATION_ELEMENT_STIFFNESS.mtx



                                   E L E M E N T   M A T R I X   O U T P U T





   ELEMENT MATRIX OUTPUT REQUESTS WILL BE PRINTED FOR ELEMENT SET ASSEMBLY_WHOLE_CUBE_ELEMENT IN 
   FILE C:\LocalUserData\User-data\nguyenb5\Abaqus-UEL-von-Mises-plasticity\(UMAT) 
   cube_C3D8_deformation\CUBE_C3D8_DEFORMATION_ELEMENT_STIFFNESS.mtx



                                   E L E M E N T   M A T R I X   O U T P U T





   ELEMENT MATRIX OUTPUT REQUESTS WILL BE PRINTED FOR ELEMENT SET ASSEMBLY_WHOLE_CUBE_ELEMENT IN 
   FILE C:\LocalUserData\User-data\nguyenb5\Abaqus-UEL-von-Mises-plasticity\(UMAT) 
   cube_C3D8_deformation\CUBE_C3D8_DEFORMATION_ELEMENT_STIFFNESS.mtx



                                   E L E M E N T   M A T R I X   O U T P U T





   ELEMENT MATRIX OUTPUT REQUESTS WILL BE PRINTED FOR ELEMENT SET ASSEMBLY_WHOLE_CUBE_ELEMENT IN 
   FILE C:\LocalUserData\User-data\nguyenb5\Abaqus-UEL-von-Mises-plasticity\(UMAT) 
   cube_C3D8_deformation\CUBE_C3D8_DEFORMATION_ELEMENT_STIFFNESS.mtx


          THE ANALYSIS HAS BEEN COMPLETED



                              ANALYSIS COMPLETE
                              WITH      6 WARNING MESSAGES ON THE DAT FILE



     JOB TIME SUMMARY
       USER TIME (SEC)      =      2.1    
       SYSTEM TIME (SEC)    =     0.80    
       TOTAL CPU TIME (SEC) =      2.9    
       WALLCLOCK TIME (SEC) =            6
