1

   Abaqus 2023.HF4                                  Date 10-Oct-2024   Time 17:34:21
   For use by AALTO UNIVERSITY under license from Dassault Systemes or its subsidiary.

                                                                                 
                                                                                 
 STEP    1     INCREMENT     1     STEP TIME    0.00    


                        S T E P       1     S T A T I C   A N A L Y S I S


                                                                                          

     AUTOMATIC TIME CONTROL WITH -
          A SUGGESTED INITIAL TIME INCREMENT OF                 1.00    
          AND A TOTAL TIME PERIOD OF                            100.    
          THE MINIMUM TIME INCREMENT ALLOWED IS                1.000E-07
          THE MAXIMUM TIME INCREMENT ALLOWED IS                 1.00    

     LINEAR EQUATION SOLVER TYPE         DIRECT SPARSE

 CONVERGENCE TOLERANCE PARAMETERS FOR FORCE    
     CRITERION FOR RESIDUAL FORCE     FOR A NONLINEAR PROBLEM          5.000E-03
     CRITERION FOR DISP.    CORRECTION IN A NONLINEAR PROBLEM          1.000E-02
     INITIAL VALUE OF TIME AVERAGE FORCE                               1.000E-02
     AVERAGE FORCE     IS TIME AVERAGE FORCE    
     ALTERNATE CRIT. FOR RESIDUAL FORCE     FOR A NONLINEAR PROBLEM    2.000E-02
     CRITERION FOR ZERO FORCE     RELATIVE TO TIME AVRG. FORCE         1.000E-05
     CRITERION FOR RESIDUAL FORCE     WHEN THERE IS ZERO FLUX          1.000E-05
     CRITERION FOR DISP.    CORRECTION WHEN THERE IS ZERO FLUX         1.000E-03
     CRITERION FOR RESIDUAL FORCE     FOR A LINEAR INCREMENT           1.000E-08
     FIELD CONVERSION RATIO                                             1.00    
     CRITERION FOR ZERO FORCE     REL. TO TIME AVRG. MAX. FORCE        1.000E-05
     CRITERION FOR ZERO DISP.    RELATIVE TO CHARACTERISTIC LENGTH     1.000E-08

     VOLUMETRIC STRAIN COMPATIBILITY TOLERANCE FOR HYBRID SOLIDS       1.000E-05
     AXIAL STRAIN COMPATIBILITY TOLERANCE FOR HYBRID BEAMS             1.000E-05
     TRANS. SHEAR STRAIN COMPATIBILITY TOLERANCE FOR HYBRID BEAMS      1.000E-05
     SOFT CONTACT CONSTRAINT COMPATIBILITY TOLERANCE FOR P>P0          5.000E-03
     SOFT CONTACT CONSTRAINT COMPATIBILITY TOLERANCE FOR P=0.0         0.100    
     CONTACT FORCE ERROR TOLERANCE FOR CONVERT SDI=YES                 1.00    
     DISPLACEMENT COMPATIBILITY TOLERANCE FOR DCOUP ELEMENTS           1.000E-05
     ROTATION COMPATIBILITY TOLERANCE FOR DCOUP ELEMENTS               1.000E-05

 EQUILIBRIUM WILL BE CHECKED FOR SEVERE DISCONTINUITY ITERATIONS

 TIME INCREMENTATION CONTROL PARAMETERS:
     FIRST EQUILIBRIUM ITERATION FOR CONSECUTIVE DIVERGENCE CHECK              4
     EQUILIBRIUM ITERATION AT WHICH LOG. CONVERGENCE RATE CHECK BEGINS         8
     EQUILIBRIUM ITERATION AFTER WHICH ALTERNATE RESIDUAL IS USED              9
     MAXIMUM EQUILIBRIUM ITERATIONS ALLOWED                                   16
     EQUILIBRIUM ITERATION COUNT FOR CUT-BACK IN NEXT INCREMENT               10
     MAXIMUM EQUILIB. ITERS IN TWO INCREMENTS FOR TIME INCREMENT INCREASE      4
     MAXIMUM ITERATIONS FOR SEVERE DISCONTINUITIES                            50
     MAXIMUM ATTEMPTS ALLOWED IN AN INCREMENT                                  5
     MAXIMUM DISCON. ITERS IN TWO INCREMENTS FOR TIME INCREMENT INCREASE      50
     MAXIMUM CONTACT AUGMENTATIONS FOR *SURFACE BEHAVIOR,AUGMENTED LAGRANGE   50
     CUT-BACK FACTOR AFTER DIVERGENCE                                 0.2500    
     CUT-BACK FACTOR FOR TOO SLOW CONVERGENCE                         0.5000    
     CUT-BACK FACTOR AFTER TOO MANY EQUILIBRIUM ITERATIONS            0.7500    
     CUT-BACK FACTOR AFTER TOO MANY SEVERE DISCONTINUITY ITERATIONS   0.2500    
     CUT-BACK FACTOR AFTER PROBLEMS IN ELEMENT ASSEMBLY               0.2500    
     INCREASE FACTOR AFTER TWO INCREMENTS THAT CONVERGE QUICKLY        1.500    
     MAX. TIME INCREMENT INCREASE FACTOR ALLOWED                       1.500    
     MAX. TIME INCREMENT INCREASE FACTOR ALLOWED (DYNAMICS)            1.250    
     MAX. TIME INCREMENT INCREASE FACTOR ALLOWED (DIFFUSION)           2.000    
     MINIMUM TIME INCREMENT RATIO FOR EXTRAPOLATION TO OCCUR          0.1000    
     MAX. RATIO OF TIME INCREMENT TO STABILITY LIMIT                   1.000    
     FRACTION OF STABILITY LIMIT FOR NEW TIME INCREMENT               0.9500    
     TIME INCREMENT INCREASE FACTOR BEFORE A TIME POINT                1.000    
     GLOBAL STABILIZATION CONTROL IS NOT USED

          PRINT OF INCREMENT NUMBER, TIME, ETC., EVERY    1  INCREMENTS

     THE MAXIMUM NUMBER OF INCREMENTS IN THIS STEP IS                 1000000

          LARGE DISPLACEMENT THEORY WILL BE USED

     LINEAR EXTRAPOLATION WILL BE USED

     CHARACTERISTIC ELEMENT LENGTH     1.000E-03

     DETAILS REGARDING ACTUAL SOLUTION WAVEFRONT REQUESTED

     DETAILED OUTPUT OF DIAGNOSTICS TO DATABASE REQUESTED

     PRINT OF INCREMENT NUMBER, TIME, ETC., TO THE MESSAGE FILE EVERY     1  INCREMENTS

     COLLECTING MODEL CONSTRAINT INFORMATION FOR OVERCONSTRAINT CHECKS

     COLLECTING STEP CONSTRAINT INFORMATION FOR OVERCONSTRAINT CHECKS


  INCREMENT     1 STARTS. ATTEMPT NUMBER  1, TIME INCREMENT   1.00    
 
	SYMMETRIC NEW DIRECT SPARSE SOLVER RUNNING ON
 	1 HOST x 1 MPI RANK PER HOST x 1 THREAD PER RANK
        NUMBER OF EQUATIONS:  24
        NUMBER OF RHS:        1
        NUMBER OF FLOPS:      4.900e+03
        SOLVER ELAPSED TIME:  6ms

               CONVERGENCE CHECKS FOR EQUILIBRIUM ITERATION     1


 AVERAGE FORCE                       87.5       TIME AVG. FORCE        87.5    
 LARGEST SCALED RESIDUAL FORCE      1.066E-13   AT NODE          2   DOF  1
   INSTANCE: CUBE_ASSEMBLY                                                                   
  CORRESPONDING RESIDUAL FORCE      1.066E-13
 LARGEST INCREMENT OF DISP.         1.000E-05   AT NODE          1   DOF  2
   INSTANCE: CUBE_ASSEMBLY                                                                   
 LARGEST CORRECTION TO DISP.        1.000E-05   AT NODE          1   DOF  2
   INSTANCE: CUBE_ASSEMBLY                                                                   
          THE FORCE     EQUILIBRIUM RESPONSE WAS LINEAR IN THIS INCREMENT

 ITERATION SUMMARY FOR THE INCREMENT:   1 TOTAL ITERATIONS, OF WHICH
   0 ARE SEVERE DISCONTINUITY ITERATIONS AND  1 ARE EQUILIBRIUM ITERATIONS.

 TIME INCREMENT COMPLETED   1.00    ,  FRACTION OF STEP COMPLETED  1.000E-02
 STEP TIME COMPLETED        1.00    ,  TOTAL TIME COMPLETED         1.00    


  INCREMENT     2 STARTS. ATTEMPT NUMBER  1, TIME INCREMENT   1.00    
 
	SYMMETRIC NEW DIRECT SPARSE SOLVER RUNNING ON
 	1 HOST x 1 MPI RANK PER HOST x 1 THREAD PER RANK
        NUMBER OF EQUATIONS:  24
        NUMBER OF RHS:        1
        NUMBER OF FLOPS:      4.900e+03
        SOLVER ELAPSED TIME:  0ms

               CONVERGENCE CHECKS FOR EQUILIBRIUM ITERATION     1


 AVERAGE FORCE                      1.050E+03   TIME AVG. FORCE        569.    
 LARGEST SCALED RESIDUAL FORCE     -8.704E-14   AT NODE          5   DOF  3
   INSTANCE: CUBE_ASSEMBLY                                                                   
  CORRESPONDING RESIDUAL FORCE     -8.704E-14
 LARGEST INCREMENT OF DISP.         1.000E-05   AT NODE          1   DOF  2
   INSTANCE: CUBE_ASSEMBLY                                                                   
 LARGEST CORRECTION TO DISP.        5.868E-21   AT NODE          2   DOF  1
   INSTANCE: CUBE_ASSEMBLY                                                                   
          THE FORCE     EQUILIBRIUM RESPONSE WAS LINEAR IN THIS INCREMENT

 ITERATION SUMMARY FOR THE INCREMENT:   1 TOTAL ITERATIONS, OF WHICH
   0 ARE SEVERE DISCONTINUITY ITERATIONS AND  1 ARE EQUILIBRIUM ITERATIONS.

 TIME INCREMENT COMPLETED   1.00    ,  FRACTION OF STEP COMPLETED  2.000E-02
 STEP TIME COMPLETED        2.00    ,  TOTAL TIME COMPLETED         2.00    


  INCREMENT     3 STARTS. ATTEMPT NUMBER  1, TIME INCREMENT   1.00    
 
	SYMMETRIC NEW DIRECT SPARSE SOLVER RUNNING ON
 	1 HOST x 1 MPI RANK PER HOST x 1 THREAD PER RANK
        NUMBER OF EQUATIONS:  24
        NUMBER OF RHS:        1
        NUMBER OF FLOPS:      4.900e+03
        SOLVER ELAPSED TIME:  0ms

               CONVERGENCE CHECKS FOR EQUILIBRIUM ITERATION     1


 AVERAGE FORCE                      1.575E+03   TIME AVG. FORCE        904.    
 LARGEST SCALED RESIDUAL FORCE      7.816E-14   AT NODE          2   DOF  3
   INSTANCE: CUBE_ASSEMBLY                                                                   
  CORRESPONDING RESIDUAL FORCE      7.816E-14
 LARGEST INCREMENT OF DISP.         1.000E-05   AT NODE          1   DOF  2
   INSTANCE: CUBE_ASSEMBLY                                                                   
 LARGEST CORRECTION TO DISP.       -3.849E-21   AT NODE          3   DOF  1
   INSTANCE: CUBE_ASSEMBLY                                                                   
          THE FORCE     EQUILIBRIUM RESPONSE WAS LINEAR IN THIS INCREMENT

 ITERATION SUMMARY FOR THE INCREMENT:   1 TOTAL ITERATIONS, OF WHICH
   0 ARE SEVERE DISCONTINUITY ITERATIONS AND  1 ARE EQUILIBRIUM ITERATIONS.

 TIME INCREMENT COMPLETED   1.00    ,  FRACTION OF STEP COMPLETED  3.000E-02
 STEP TIME COMPLETED        3.00    ,  TOTAL TIME COMPLETED         3.00    


  INCREMENT     4 STARTS. ATTEMPT NUMBER  1, TIME INCREMENT   1.00    
 
	SYMMETRIC NEW DIRECT SPARSE SOLVER RUNNING ON
 	1 HOST x 1 MPI RANK PER HOST x 1 THREAD PER RANK
        NUMBER OF EQUATIONS:  24
        NUMBER OF RHS:        1
        NUMBER OF FLOPS:      4.900e+03
        SOLVER ELAPSED TIME:  0ms

               CONVERGENCE CHECKS FOR EQUILIBRIUM ITERATION     1


 AVERAGE FORCE                      2.100E+03   TIME AVG. FORCE       1.203E+03
 LARGEST SCALED RESIDUAL FORCE     -8.527E-14   AT NODE          1   DOF  3
   INSTANCE: CUBE_ASSEMBLY                                                                   
  CORRESPONDING RESIDUAL FORCE     -8.527E-14
 LARGEST INCREMENT OF DISP.         1.000E-05   AT NODE          1   DOF  2
   INSTANCE: CUBE_ASSEMBLY                                                                   
 LARGEST CORRECTION TO DISP.        7.482E-21   AT NODE          2   DOF  3
   INSTANCE: CUBE_ASSEMBLY                                                                   
          THE FORCE     EQUILIBRIUM RESPONSE WAS LINEAR IN THIS INCREMENT

 ITERATION SUMMARY FOR THE INCREMENT:   1 TOTAL ITERATIONS, OF WHICH
   0 ARE SEVERE DISCONTINUITY ITERATIONS AND  1 ARE EQUILIBRIUM ITERATIONS.

 TIME INCREMENT COMPLETED   1.00    ,  FRACTION OF STEP COMPLETED  4.000E-02
 STEP TIME COMPLETED        4.00    ,  TOTAL TIME COMPLETED         4.00    


  INCREMENT     5 STARTS. ATTEMPT NUMBER  1, TIME INCREMENT   1.00    
 
	SYMMETRIC NEW DIRECT SPARSE SOLVER RUNNING ON
 	1 HOST x 1 MPI RANK PER HOST x 1 THREAD PER RANK
        NUMBER OF EQUATIONS:  24
        NUMBER OF RHS:        1
        NUMBER OF FLOPS:      4.900e+03
        SOLVER ELAPSED TIME:  0ms

               CONVERGENCE CHECKS FOR EQUILIBRIUM ITERATION     1


 AVERAGE FORCE                      2.625E+03   TIME AVG. FORCE       1.488E+03
 LARGEST SCALED RESIDUAL FORCE      3.695E-13   AT NODE          2   DOF  1
   INSTANCE: CUBE_ASSEMBLY                                                                   
  CORRESPONDING RESIDUAL FORCE      3.695E-13
 LARGEST INCREMENT OF DISP.         1.000E-05   AT NODE          1   DOF  2
   INSTANCE: CUBE_ASSEMBLY                                                                   
 LARGEST CORRECTION TO DISP.       -4.528E-21   AT NODE          4   DOF  1
   INSTANCE: CUBE_ASSEMBLY                                                                   
          THE FORCE     EQUILIBRIUM RESPONSE WAS LINEAR IN THIS INCREMENT

 ITERATION SUMMARY FOR THE INCREMENT:   1 TOTAL ITERATIONS, OF WHICH
   0 ARE SEVERE DISCONTINUITY ITERATIONS AND  1 ARE EQUILIBRIUM ITERATIONS.

 TIME INCREMENT COMPLETED   1.00    ,  FRACTION OF STEP COMPLETED  5.000E-02
 STEP TIME COMPLETED        5.00    ,  TOTAL TIME COMPLETED         5.00    


  INCREMENT     6 STARTS. ATTEMPT NUMBER  1, TIME INCREMENT   1.00    
 
	SYMMETRIC NEW DIRECT SPARSE SOLVER RUNNING ON
 	1 HOST x 1 MPI RANK PER HOST x 1 THREAD PER RANK
        NUMBER OF EQUATIONS:  24
        NUMBER OF RHS:        1
        NUMBER OF FLOPS:      4.900e+03
        SOLVER ELAPSED TIME:  0ms

               CONVERGENCE CHECKS FOR EQUILIBRIUM ITERATION     1


 AVERAGE FORCE                      3.150E+03   TIME AVG. FORCE       1.765E+03
 LARGEST SCALED RESIDUAL FORCE      1.705E-13   AT NODE          2   DOF  1
   INSTANCE: CUBE_ASSEMBLY                                                                   
  CORRESPONDING RESIDUAL FORCE      1.705E-13
 LARGEST INCREMENT OF DISP.         1.000E-05   AT NODE          1   DOF  2
   INSTANCE: CUBE_ASSEMBLY                                                                   
 LARGEST CORRECTION TO DISP.        4.384E-21   AT NODE          1   DOF  1
   INSTANCE: CUBE_ASSEMBLY                                                                   
          THE FORCE     EQUILIBRIUM RESPONSE WAS LINEAR IN THIS INCREMENT

 ITERATION SUMMARY FOR THE INCREMENT:   1 TOTAL ITERATIONS, OF WHICH
   0 ARE SEVERE DISCONTINUITY ITERATIONS AND  1 ARE EQUILIBRIUM ITERATIONS.

 TIME INCREMENT COMPLETED   1.00    ,  FRACTION OF STEP COMPLETED  6.000E-02
 STEP TIME COMPLETED        6.00    ,  TOTAL TIME COMPLETED         6.00    


  INCREMENT     7 STARTS. ATTEMPT NUMBER  1, TIME INCREMENT   1.00    
 
	SYMMETRIC NEW DIRECT SPARSE SOLVER RUNNING ON
 	1 HOST x 1 MPI RANK PER HOST x 1 THREAD PER RANK
        NUMBER OF EQUATIONS:  24
        NUMBER OF RHS:        1
        NUMBER OF FLOPS:      4.900e+03
        SOLVER ELAPSED TIME:  0ms

               CONVERGENCE CHECKS FOR EQUILIBRIUM ITERATION     1


 AVERAGE FORCE                      3.675E+03   TIME AVG. FORCE       2.038E+03
 LARGEST SCALED RESIDUAL FORCE     -5.116E-13   AT NODE          2   DOF  3
   INSTANCE: CUBE_ASSEMBLY                                                                   
  CORRESPONDING RESIDUAL FORCE     -5.116E-13
 LARGEST INCREMENT OF DISP.         1.000E-05   AT NODE          1   DOF  2
   INSTANCE: CUBE_ASSEMBLY                                                                   
 LARGEST CORRECTION TO DISP.        7.625E-21   AT NODE          1   DOF  3
   INSTANCE: CUBE_ASSEMBLY                                                                   
          THE FORCE     EQUILIBRIUM RESPONSE WAS LINEAR IN THIS INCREMENT

 ITERATION SUMMARY FOR THE INCREMENT:   1 TOTAL ITERATIONS, OF WHICH
   0 ARE SEVERE DISCONTINUITY ITERATIONS AND  1 ARE EQUILIBRIUM ITERATIONS.

 TIME INCREMENT COMPLETED   1.00    ,  FRACTION OF STEP COMPLETED  7.000E-02
 STEP TIME COMPLETED        7.00    ,  TOTAL TIME COMPLETED         7.00    


  INCREMENT     8 STARTS. ATTEMPT NUMBER  1, TIME INCREMENT   1.00    
 
	SYMMETRIC NEW DIRECT SPARSE SOLVER RUNNING ON
 	1 HOST x 1 MPI RANK PER HOST x 1 THREAD PER RANK
        NUMBER OF EQUATIONS:  24
        NUMBER OF RHS:        1
        NUMBER OF FLOPS:      4.900e+03
        SOLVER ELAPSED TIME:  0ms

               CONVERGENCE CHECKS FOR EQUILIBRIUM ITERATION     1


 AVERAGE FORCE                      4.200E+03   TIME AVG. FORCE       2.308E+03
 LARGEST SCALED RESIDUAL FORCE      5.684E-13   AT NODE          3   DOF  1
   INSTANCE: CUBE_ASSEMBLY                                                                   
  CORRESPONDING RESIDUAL FORCE      5.684E-13
 LARGEST INCREMENT OF DISP.         1.000E-05   AT NODE          1   DOF  2
   INSTANCE: CUBE_ASSEMBLY                                                                   
 LARGEST CORRECTION TO DISP.       -1.491E-20   AT NODE          1   DOF  3
   INSTANCE: CUBE_ASSEMBLY                                                                   
          THE FORCE     EQUILIBRIUM RESPONSE WAS LINEAR IN THIS INCREMENT

 ITERATION SUMMARY FOR THE INCREMENT:   1 TOTAL ITERATIONS, OF WHICH
   0 ARE SEVERE DISCONTINUITY ITERATIONS AND  1 ARE EQUILIBRIUM ITERATIONS.

 TIME INCREMENT COMPLETED   1.00    ,  FRACTION OF STEP COMPLETED  8.000E-02
 STEP TIME COMPLETED        8.00    ,  TOTAL TIME COMPLETED         8.00    


  INCREMENT     9 STARTS. ATTEMPT NUMBER  1, TIME INCREMENT   1.00    
 
	SYMMETRIC NEW DIRECT SPARSE SOLVER RUNNING ON
 	1 HOST x 1 MPI RANK PER HOST x 1 THREAD PER RANK
        NUMBER OF EQUATIONS:  24
        NUMBER OF RHS:        1
        NUMBER OF FLOPS:      4.900e+03
        SOLVER ELAPSED TIME:  0ms

               CONVERGENCE CHECKS FOR EQUILIBRIUM ITERATION     1


 AVERAGE FORCE                      4.725E+03   TIME AVG. FORCE       2.576E+03
 LARGEST SCALED RESIDUAL FORCE      3.411E-13   AT NODE          2   DOF  1
   INSTANCE: CUBE_ASSEMBLY                                                                   
  CORRESPONDING RESIDUAL FORCE      3.411E-13
 LARGEST INCREMENT OF DISP.         1.000E-05   AT NODE          1   DOF  2
   INSTANCE: CUBE_ASSEMBLY                                                                   
 LARGEST CORRECTION TO DISP.        2.364E-20   AT NODE          3   DOF  1
   INSTANCE: CUBE_ASSEMBLY                                                                   
          THE FORCE     EQUILIBRIUM RESPONSE WAS LINEAR IN THIS INCREMENT

 ITERATION SUMMARY FOR THE INCREMENT:   1 TOTAL ITERATIONS, OF WHICH
   0 ARE SEVERE DISCONTINUITY ITERATIONS AND  1 ARE EQUILIBRIUM ITERATIONS.

 TIME INCREMENT COMPLETED   1.00    ,  FRACTION OF STEP COMPLETED  9.000E-02
 STEP TIME COMPLETED        9.00    ,  TOTAL TIME COMPLETED         9.00    


  INCREMENT    10 STARTS. ATTEMPT NUMBER  1, TIME INCREMENT   1.00    
 
	SYMMETRIC NEW DIRECT SPARSE SOLVER RUNNING ON
 	1 HOST x 1 MPI RANK PER HOST x 1 THREAD PER RANK
        NUMBER OF EQUATIONS:  24
        NUMBER OF RHS:        1
        NUMBER OF FLOPS:      4.900e+03
        SOLVER ELAPSED TIME:  0ms

               CONVERGENCE CHECKS FOR EQUILIBRIUM ITERATION     1


 AVERAGE FORCE                      5.250E+03   TIME AVG. FORCE       2.844E+03
 LARGEST SCALED RESIDUAL FORCE     -4.547E-13   AT NODE          6   DOF  3
   INSTANCE: CUBE_ASSEMBLY                                                                   
  CORRESPONDING RESIDUAL FORCE     -4.547E-13
 LARGEST INCREMENT OF DISP.         1.000E-05   AT NODE          1   DOF  2
   INSTANCE: CUBE_ASSEMBLY                                                                   
 LARGEST CORRECTION TO DISP.        2.711E-20   AT NODE          1   DOF  2
   INSTANCE: CUBE_ASSEMBLY                                                                   
          THE FORCE     EQUILIBRIUM RESPONSE WAS LINEAR IN THIS INCREMENT

 ITERATION SUMMARY FOR THE INCREMENT:   1 TOTAL ITERATIONS, OF WHICH
   0 ARE SEVERE DISCONTINUITY ITERATIONS AND  1 ARE EQUILIBRIUM ITERATIONS.

 TIME INCREMENT COMPLETED   1.00    ,  FRACTION OF STEP COMPLETED  0.100    
 STEP TIME COMPLETED        10.0    ,  TOTAL TIME COMPLETED         10.0    


  INCREMENT    11 STARTS. ATTEMPT NUMBER  1, TIME INCREMENT   1.00    
 
	SYMMETRIC NEW DIRECT SPARSE SOLVER RUNNING ON
 	1 HOST x 1 MPI RANK PER HOST x 1 THREAD PER RANK
        NUMBER OF EQUATIONS:  24
        NUMBER OF RHS:        1
        NUMBER OF FLOPS:      4.900e+03
        SOLVER ELAPSED TIME:  0ms

               CONVERGENCE CHECKS FOR EQUILIBRIUM ITERATION     1


 AVERAGE FORCE                      5.775E+03   TIME AVG. FORCE       3.110E+03
 LARGEST SCALED RESIDUAL FORCE      1.421E-13   AT NODE          1   DOF  3
   INSTANCE: CUBE_ASSEMBLY                                                                   
  CORRESPONDING RESIDUAL FORCE      1.421E-13
 LARGEST INCREMENT OF DISP.         1.000E-05   AT NODE          1   DOF  2
   INSTANCE: CUBE_ASSEMBLY                                                                   
 LARGEST CORRECTION TO DISP.        1.469E-20   AT NODE          2   DOF  3
   INSTANCE: CUBE_ASSEMBLY                                                                   
          THE FORCE     EQUILIBRIUM RESPONSE WAS LINEAR IN THIS INCREMENT

 ITERATION SUMMARY FOR THE INCREMENT:   1 TOTAL ITERATIONS, OF WHICH
   0 ARE SEVERE DISCONTINUITY ITERATIONS AND  1 ARE EQUILIBRIUM ITERATIONS.

 TIME INCREMENT COMPLETED   1.00    ,  FRACTION OF STEP COMPLETED  0.110    
 STEP TIME COMPLETED        11.0    ,  TOTAL TIME COMPLETED         11.0    


  INCREMENT    12 STARTS. ATTEMPT NUMBER  1, TIME INCREMENT   1.00    
 
	SYMMETRIC NEW DIRECT SPARSE SOLVER RUNNING ON
 	1 HOST x 1 MPI RANK PER HOST x 1 THREAD PER RANK
        NUMBER OF EQUATIONS:  24
        NUMBER OF RHS:        1
        NUMBER OF FLOPS:      4.900e+03
        SOLVER ELAPSED TIME:  0ms

               CONVERGENCE CHECKS FOR EQUILIBRIUM ITERATION     1


 AVERAGE FORCE                      6.300E+03   TIME AVG. FORCE       3.376E+03
 LARGEST SCALED RESIDUAL FORCE     -2.274E-13   AT NODE          2   DOF  1
   INSTANCE: CUBE_ASSEMBLY                                                                   
  CORRESPONDING RESIDUAL FORCE     -2.274E-13
 LARGEST INCREMENT OF DISP.         1.000E-05   AT NODE          1   DOF  2
   INSTANCE: CUBE_ASSEMBLY                                                                   
 LARGEST CORRECTION TO DISP.        2.309E-20   AT NODE          4   DOF  1
   INSTANCE: CUBE_ASSEMBLY                                                                   
          THE FORCE     EQUILIBRIUM RESPONSE WAS LINEAR IN THIS INCREMENT

 ITERATION SUMMARY FOR THE INCREMENT:   1 TOTAL ITERATIONS, OF WHICH
   0 ARE SEVERE DISCONTINUITY ITERATIONS AND  1 ARE EQUILIBRIUM ITERATIONS.

 TIME INCREMENT COMPLETED   1.00    ,  FRACTION OF STEP COMPLETED  0.120    
 STEP TIME COMPLETED        12.0    ,  TOTAL TIME COMPLETED         12.0    


  INCREMENT    13 STARTS. ATTEMPT NUMBER  1, TIME INCREMENT   1.00    
 
	SYMMETRIC NEW DIRECT SPARSE SOLVER RUNNING ON
 	1 HOST x 1 MPI RANK PER HOST x 1 THREAD PER RANK
        NUMBER OF EQUATIONS:  24
        NUMBER OF RHS:        1
        NUMBER OF FLOPS:      4.900e+03
        SOLVER ELAPSED TIME:  0ms

               CONVERGENCE CHECKS FOR EQUILIBRIUM ITERATION     1


 AVERAGE FORCE                      6.825E+03   TIME AVG. FORCE       3.641E+03
 LARGEST SCALED RESIDUAL FORCE      2.842E-13   AT NODE          3   DOF  1
   INSTANCE: CUBE_ASSEMBLY                                                                   
  CORRESPONDING RESIDUAL FORCE      2.842E-13
 LARGEST INCREMENT OF DISP.         1.000E-05   AT NODE          1   DOF  2
   INSTANCE: CUBE_ASSEMBLY                                                                   
 LARGEST CORRECTION TO DISP.       -2.880E-20   AT NODE          4   DOF  1
   INSTANCE: CUBE_ASSEMBLY                                                                   
          THE FORCE     EQUILIBRIUM RESPONSE WAS LINEAR IN THIS INCREMENT

 ITERATION SUMMARY FOR THE INCREMENT:   1 TOTAL ITERATIONS, OF WHICH
   0 ARE SEVERE DISCONTINUITY ITERATIONS AND  1 ARE EQUILIBRIUM ITERATIONS.

 TIME INCREMENT COMPLETED   1.00    ,  FRACTION OF STEP COMPLETED  0.130    
 STEP TIME COMPLETED        13.0    ,  TOTAL TIME COMPLETED         13.0    


  INCREMENT    14 STARTS. ATTEMPT NUMBER  1, TIME INCREMENT   1.00    
 
	SYMMETRIC NEW DIRECT SPARSE SOLVER RUNNING ON
 	1 HOST x 1 MPI RANK PER HOST x 1 THREAD PER RANK
        NUMBER OF EQUATIONS:  24
        NUMBER OF RHS:        1
        NUMBER OF FLOPS:      4.900e+03
        SOLVER ELAPSED TIME:  0ms

               CONVERGENCE CHECKS FOR EQUILIBRIUM ITERATION     1


 AVERAGE FORCE                      7.350E+03   TIME AVG. FORCE       3.906E+03
 LARGEST SCALED RESIDUAL FORCE      3.695E-13   AT NODE          5   DOF  3
   INSTANCE: CUBE_ASSEMBLY                                                                   
  CORRESPONDING RESIDUAL FORCE      3.695E-13
 LARGEST INCREMENT OF DISP.         1.000E-05   AT NODE          1   DOF  2
   INSTANCE: CUBE_ASSEMBLY                                                                   
 LARGEST CORRECTION TO DISP.        2.223E-20   AT NODE          4   DOF  1
   INSTANCE: CUBE_ASSEMBLY                                                                   
          THE FORCE     EQUILIBRIUM RESPONSE WAS LINEAR IN THIS INCREMENT

 ITERATION SUMMARY FOR THE INCREMENT:   1 TOTAL ITERATIONS, OF WHICH
   0 ARE SEVERE DISCONTINUITY ITERATIONS AND  1 ARE EQUILIBRIUM ITERATIONS.

 TIME INCREMENT COMPLETED   1.00    ,  FRACTION OF STEP COMPLETED  0.140    
 STEP TIME COMPLETED        14.0    ,  TOTAL TIME COMPLETED         14.0    


  INCREMENT    15 STARTS. ATTEMPT NUMBER  1, TIME INCREMENT   1.00    
 
	SYMMETRIC NEW DIRECT SPARSE SOLVER RUNNING ON
 	1 HOST x 1 MPI RANK PER HOST x 1 THREAD PER RANK
        NUMBER OF EQUATIONS:  24
        NUMBER OF RHS:        1
        NUMBER OF FLOPS:      4.900e+03
        SOLVER ELAPSED TIME:  0ms

               CONVERGENCE CHECKS FOR EQUILIBRIUM ITERATION     1


 AVERAGE FORCE                      7.875E+03   TIME AVG. FORCE       4.171E+03
 LARGEST SCALED RESIDUAL FORCE     -1.478E-12   AT NODE          2   DOF  1
   INSTANCE: CUBE_ASSEMBLY                                                                   
  CORRESPONDING RESIDUAL FORCE     -1.478E-12
 LARGEST INCREMENT OF DISP.         1.000E-05   AT NODE          1   DOF  2
   INSTANCE: CUBE_ASSEMBLY                                                                   
 LARGEST CORRECTION TO DISP.       -2.711E-20   AT NODE          1   DOF  2
   INSTANCE: CUBE_ASSEMBLY                                                                   
          THE FORCE     EQUILIBRIUM RESPONSE WAS LINEAR IN THIS INCREMENT

 ITERATION SUMMARY FOR THE INCREMENT:   1 TOTAL ITERATIONS, OF WHICH
   0 ARE SEVERE DISCONTINUITY ITERATIONS AND  1 ARE EQUILIBRIUM ITERATIONS.

 TIME INCREMENT COMPLETED   1.00    ,  FRACTION OF STEP COMPLETED  0.150    
 STEP TIME COMPLETED        15.0    ,  TOTAL TIME COMPLETED         15.0    


  INCREMENT    16 STARTS. ATTEMPT NUMBER  1, TIME INCREMENT   1.00    
 
	SYMMETRIC NEW DIRECT SPARSE SOLVER RUNNING ON
 	1 HOST x 1 MPI RANK PER HOST x 1 THREAD PER RANK
        NUMBER OF EQUATIONS:  24
        NUMBER OF RHS:        1
        NUMBER OF FLOPS:      4.900e+03
        SOLVER ELAPSED TIME:  0ms

               CONVERGENCE CHECKS FOR EQUILIBRIUM ITERATION     1


 AVERAGE FORCE                      8.400E+03   TIME AVG. FORCE       4.435E+03
 LARGEST SCALED RESIDUAL FORCE     -2.842E-13   AT NODE          3   DOF  1
   INSTANCE: CUBE_ASSEMBLY                                                                   
  CORRESPONDING RESIDUAL FORCE     -2.842E-13
 LARGEST INCREMENT OF DISP.         1.000E-05   AT NODE          1   DOF  2
   INSTANCE: CUBE_ASSEMBLY                                                                   
 LARGEST CORRECTION TO DISP.        5.421E-20   AT NODE          1   DOF  2
   INSTANCE: CUBE_ASSEMBLY                                                                   
          THE FORCE     EQUILIBRIUM RESPONSE WAS LINEAR IN THIS INCREMENT

 ITERATION SUMMARY FOR THE INCREMENT:   1 TOTAL ITERATIONS, OF WHICH
   0 ARE SEVERE DISCONTINUITY ITERATIONS AND  1 ARE EQUILIBRIUM ITERATIONS.

 TIME INCREMENT COMPLETED   1.00    ,  FRACTION OF STEP COMPLETED  0.160    
 STEP TIME COMPLETED        16.0    ,  TOTAL TIME COMPLETED         16.0    


  INCREMENT    17 STARTS. ATTEMPT NUMBER  1, TIME INCREMENT   1.00    
 
	SYMMETRIC NEW DIRECT SPARSE SOLVER RUNNING ON
 	1 HOST x 1 MPI RANK PER HOST x 1 THREAD PER RANK
        NUMBER OF EQUATIONS:  24
        NUMBER OF RHS:        1
        NUMBER OF FLOPS:      4.900e+03
        SOLVER ELAPSED TIME:  0ms

               CONVERGENCE CHECKS FOR EQUILIBRIUM ITERATION     1


 AVERAGE FORCE                      8.925E+03   TIME AVG. FORCE       4.699E+03
 LARGEST SCALED RESIDUAL FORCE      4.547E-13   AT NODE          2   DOF  1
   INSTANCE: CUBE_ASSEMBLY                                                                   
  CORRESPONDING RESIDUAL FORCE      4.547E-13
 LARGEST INCREMENT OF DISP.         1.000E-05   AT NODE          1   DOF  2
   INSTANCE: CUBE_ASSEMBLY                                                                   
 LARGEST CORRECTION TO DISP.        3.361E-20   AT NODE          6   DOF  3
   INSTANCE: CUBE_ASSEMBLY                                                                   
          THE FORCE     EQUILIBRIUM RESPONSE WAS LINEAR IN THIS INCREMENT

 ITERATION SUMMARY FOR THE INCREMENT:   1 TOTAL ITERATIONS, OF WHICH
   0 ARE SEVERE DISCONTINUITY ITERATIONS AND  1 ARE EQUILIBRIUM ITERATIONS.

 TIME INCREMENT COMPLETED   1.00    ,  FRACTION OF STEP COMPLETED  0.170    
 STEP TIME COMPLETED        17.0    ,  TOTAL TIME COMPLETED         17.0    


  INCREMENT    18 STARTS. ATTEMPT NUMBER  1, TIME INCREMENT   1.00    
 
	SYMMETRIC NEW DIRECT SPARSE SOLVER RUNNING ON
 	1 HOST x 1 MPI RANK PER HOST x 1 THREAD PER RANK
        NUMBER OF EQUATIONS:  24
        NUMBER OF RHS:        1
        NUMBER OF FLOPS:      4.900e+03
        SOLVER ELAPSED TIME:  0ms

               CONVERGENCE CHECKS FOR EQUILIBRIUM ITERATION     1


 AVERAGE FORCE                      9.450E+03   TIME AVG. FORCE       4.963E+03
 LARGEST SCALED RESIDUAL FORCE     -3.979E-13   AT NODE          1   DOF  1
   INSTANCE: CUBE_ASSEMBLY                                                                   
  CORRESPONDING RESIDUAL FORCE     -3.979E-13
 LARGEST INCREMENT OF DISP.         1.000E-05   AT NODE          1   DOF  2
   INSTANCE: CUBE_ASSEMBLY                                                                   
 LARGEST CORRECTION TO DISP.       -2.711E-20   AT NODE          1   DOF  2
   INSTANCE: CUBE_ASSEMBLY                                                                   
          THE FORCE     EQUILIBRIUM RESPONSE WAS LINEAR IN THIS INCREMENT

 ITERATION SUMMARY FOR THE INCREMENT:   1 TOTAL ITERATIONS, OF WHICH
   0 ARE SEVERE DISCONTINUITY ITERATIONS AND  1 ARE EQUILIBRIUM ITERATIONS.

 TIME INCREMENT COMPLETED   1.00    ,  FRACTION OF STEP COMPLETED  0.180    
 STEP TIME COMPLETED        18.0    ,  TOTAL TIME COMPLETED         18.0    


  INCREMENT    19 STARTS. ATTEMPT NUMBER  1, TIME INCREMENT   1.00    
 
	SYMMETRIC NEW DIRECT SPARSE SOLVER RUNNING ON
 	1 HOST x 1 MPI RANK PER HOST x 1 THREAD PER RANK
        NUMBER OF EQUATIONS:  24
        NUMBER OF RHS:        1
        NUMBER OF FLOPS:      4.900e+03
        SOLVER ELAPSED TIME:  0ms

               CONVERGENCE CHECKS FOR EQUILIBRIUM ITERATION     1


 AVERAGE FORCE                      9.975E+03   TIME AVG. FORCE       5.227E+03
 LARGEST SCALED RESIDUAL FORCE      1.137E-12   AT NODE          1   DOF  3
   INSTANCE: CUBE_ASSEMBLY                                                                   
  CORRESPONDING RESIDUAL FORCE      1.137E-12
 LARGEST INCREMENT OF DISP.         1.000E-05   AT NODE          1   DOF  2
   INSTANCE: CUBE_ASSEMBLY                                                                   
 LARGEST CORRECTION TO DISP.       -8.767E-20   AT NODE          2   DOF  3
   INSTANCE: CUBE_ASSEMBLY                                                                   
          THE FORCE     EQUILIBRIUM RESPONSE WAS LINEAR IN THIS INCREMENT

 ITERATION SUMMARY FOR THE INCREMENT:   1 TOTAL ITERATIONS, OF WHICH
   0 ARE SEVERE DISCONTINUITY ITERATIONS AND  1 ARE EQUILIBRIUM ITERATIONS.

 TIME INCREMENT COMPLETED   1.00    ,  FRACTION OF STEP COMPLETED  0.190    
 STEP TIME COMPLETED        19.0    ,  TOTAL TIME COMPLETED         19.0    


  INCREMENT    20 STARTS. ATTEMPT NUMBER  1, TIME INCREMENT   1.00    
 
	SYMMETRIC NEW DIRECT SPARSE SOLVER RUNNING ON
 	1 HOST x 1 MPI RANK PER HOST x 1 THREAD PER RANK
        NUMBER OF EQUATIONS:  24
        NUMBER OF RHS:        1
        NUMBER OF FLOPS:      4.900e+03
        SOLVER ELAPSED TIME:  0ms

               CONVERGENCE CHECKS FOR EQUILIBRIUM ITERATION     1


 AVERAGE FORCE                      1.050E+04   TIME AVG. FORCE       5.491E+03
 LARGEST SCALED RESIDUAL FORCE     -5.684E-13   AT NODE          6   DOF  3
   INSTANCE: CUBE_ASSEMBLY                                                                   
  CORRESPONDING RESIDUAL FORCE     -5.684E-13
 LARGEST INCREMENT OF DISP.         1.000E-05   AT NODE          1   DOF  2
   INSTANCE: CUBE_ASSEMBLY                                                                   
 LARGEST CORRECTION TO DISP.        6.172E-20   AT NODE          3   DOF  1
   INSTANCE: CUBE_ASSEMBLY                                                                   
          THE FORCE     EQUILIBRIUM RESPONSE WAS LINEAR IN THIS INCREMENT

 ITERATION SUMMARY FOR THE INCREMENT:   1 TOTAL ITERATIONS, OF WHICH
   0 ARE SEVERE DISCONTINUITY ITERATIONS AND  1 ARE EQUILIBRIUM ITERATIONS.

 TIME INCREMENT COMPLETED   1.00    ,  FRACTION OF STEP COMPLETED  0.200    
 STEP TIME COMPLETED        20.0    ,  TOTAL TIME COMPLETED         20.0    


  INCREMENT    21 STARTS. ATTEMPT NUMBER  1, TIME INCREMENT   1.00    
 
	SYMMETRIC NEW DIRECT SPARSE SOLVER RUNNING ON
 	1 HOST x 1 MPI RANK PER HOST x 1 THREAD PER RANK
        NUMBER OF EQUATIONS:  24
        NUMBER OF RHS:        1
        NUMBER OF FLOPS:      4.900e+03
        SOLVER ELAPSED TIME:  0ms

               CONVERGENCE CHECKS FOR EQUILIBRIUM ITERATION     1


 AVERAGE FORCE                      1.103E+04   TIME AVG. FORCE       5.754E+03
 LARGEST SCALED RESIDUAL FORCE      5.116E-13   AT NODE          1   DOF  3
   INSTANCE: CUBE_ASSEMBLY                                                                   
  CORRESPONDING RESIDUAL FORCE      5.116E-13
 LARGEST INCREMENT OF DISP.         1.000E-05   AT NODE          1   DOF  2
   INSTANCE: CUBE_ASSEMBLY                                                                   
 LARGEST CORRECTION TO DISP.        1.574E-20   AT NODE          5   DOF  3
   INSTANCE: CUBE_ASSEMBLY                                                                   
          THE FORCE     EQUILIBRIUM RESPONSE WAS LINEAR IN THIS INCREMENT

 ITERATION SUMMARY FOR THE INCREMENT:   1 TOTAL ITERATIONS, OF WHICH
   0 ARE SEVERE DISCONTINUITY ITERATIONS AND  1 ARE EQUILIBRIUM ITERATIONS.

 TIME INCREMENT COMPLETED   1.00    ,  FRACTION OF STEP COMPLETED  0.210    
 STEP TIME COMPLETED        21.0    ,  TOTAL TIME COMPLETED         21.0    


  INCREMENT    22 STARTS. ATTEMPT NUMBER  1, TIME INCREMENT   1.00    
 
	SYMMETRIC NEW DIRECT SPARSE SOLVER RUNNING ON
 	1 HOST x 1 MPI RANK PER HOST x 1 THREAD PER RANK
        NUMBER OF EQUATIONS:  24
        NUMBER OF RHS:        1
        NUMBER OF FLOPS:      4.900e+03
        SOLVER ELAPSED TIME:  0ms

               CONVERGENCE CHECKS FOR EQUILIBRIUM ITERATION     1


 AVERAGE FORCE                      1.155E+04   TIME AVG. FORCE       6.018E+03
 LARGEST SCALED RESIDUAL FORCE     -1.677E-12   AT NODE          4   DOF  1
   INSTANCE: CUBE_ASSEMBLY                                                                   
  CORRESPONDING RESIDUAL FORCE     -1.677E-12
 LARGEST INCREMENT OF DISP.         1.000E-05   AT NODE          1   DOF  2
   INSTANCE: CUBE_ASSEMBLY                                                                   
 LARGEST CORRECTION TO DISP.       -2.570E-20   AT NODE          2   DOF  1
   INSTANCE: CUBE_ASSEMBLY                                                                   
          THE FORCE     EQUILIBRIUM RESPONSE WAS LINEAR IN THIS INCREMENT

 ITERATION SUMMARY FOR THE INCREMENT:   1 TOTAL ITERATIONS, OF WHICH
   0 ARE SEVERE DISCONTINUITY ITERATIONS AND  1 ARE EQUILIBRIUM ITERATIONS.

 TIME INCREMENT COMPLETED   1.00    ,  FRACTION OF STEP COMPLETED  0.220    
 STEP TIME COMPLETED        22.0    ,  TOTAL TIME COMPLETED         22.0    


  INCREMENT    23 STARTS. ATTEMPT NUMBER  1, TIME INCREMENT   1.00    
 
	SYMMETRIC NEW DIRECT SPARSE SOLVER RUNNING ON
 	1 HOST x 1 MPI RANK PER HOST x 1 THREAD PER RANK
        NUMBER OF EQUATIONS:  24
        NUMBER OF RHS:        1
        NUMBER OF FLOPS:      4.900e+03
        SOLVER ELAPSED TIME:  0ms

               CONVERGENCE CHECKS FOR EQUILIBRIUM ITERATION     1


 AVERAGE FORCE                      1.208E+04   TIME AVG. FORCE       6.281E+03
 LARGEST SCALED RESIDUAL FORCE      6.821E-13   AT NODE          6   DOF  3
   INSTANCE: CUBE_ASSEMBLY                                                                   
  CORRESPONDING RESIDUAL FORCE      6.821E-13
 LARGEST INCREMENT OF DISP.         1.000E-05   AT NODE          1   DOF  2
   INSTANCE: CUBE_ASSEMBLY                                                                   
 LARGEST CORRECTION TO DISP.       -2.512E-20   AT NODE          5   DOF  3
   INSTANCE: CUBE_ASSEMBLY                                                                   
          THE FORCE     EQUILIBRIUM RESPONSE WAS LINEAR IN THIS INCREMENT

 ITERATION SUMMARY FOR THE INCREMENT:   1 TOTAL ITERATIONS, OF WHICH
   0 ARE SEVERE DISCONTINUITY ITERATIONS AND  1 ARE EQUILIBRIUM ITERATIONS.

 TIME INCREMENT COMPLETED   1.00    ,  FRACTION OF STEP COMPLETED  0.230    
 STEP TIME COMPLETED        23.0    ,  TOTAL TIME COMPLETED         23.0    


  INCREMENT    24 STARTS. ATTEMPT NUMBER  1, TIME INCREMENT   1.00    
 
	SYMMETRIC NEW DIRECT SPARSE SOLVER RUNNING ON
 	1 HOST x 1 MPI RANK PER HOST x 1 THREAD PER RANK
        NUMBER OF EQUATIONS:  24
        NUMBER OF RHS:        1
        NUMBER OF FLOPS:      4.900e+03
        SOLVER ELAPSED TIME:  0ms

               CONVERGENCE CHECKS FOR EQUILIBRIUM ITERATION     1


 AVERAGE FORCE                      1.260E+04   TIME AVG. FORCE       6.544E+03
 LARGEST SCALED RESIDUAL FORCE      6.537E-13   AT NODE          2   DOF  3
   INSTANCE: CUBE_ASSEMBLY                                                                   
  CORRESPONDING RESIDUAL FORCE      6.537E-13
 LARGEST INCREMENT OF DISP.         1.000E-05   AT NODE          1   DOF  2
   INSTANCE: CUBE_ASSEMBLY                                                                   
 LARGEST CORRECTION TO DISP.       -3.677E-20   AT NODE          5   DOF  3
   INSTANCE: CUBE_ASSEMBLY                                                                   
          THE FORCE     EQUILIBRIUM RESPONSE WAS LINEAR IN THIS INCREMENT

 ITERATION SUMMARY FOR THE INCREMENT:   1 TOTAL ITERATIONS, OF WHICH
   0 ARE SEVERE DISCONTINUITY ITERATIONS AND  1 ARE EQUILIBRIUM ITERATIONS.

 TIME INCREMENT COMPLETED   1.00    ,  FRACTION OF STEP COMPLETED  0.240    
 STEP TIME COMPLETED        24.0    ,  TOTAL TIME COMPLETED         24.0    


  INCREMENT    25 STARTS. ATTEMPT NUMBER  1, TIME INCREMENT   1.00    
 
	SYMMETRIC NEW DIRECT SPARSE SOLVER RUNNING ON
 	1 HOST x 1 MPI RANK PER HOST x 1 THREAD PER RANK
        NUMBER OF EQUATIONS:  24
        NUMBER OF RHS:        1
        NUMBER OF FLOPS:      4.900e+03
        SOLVER ELAPSED TIME:  0ms

               CONVERGENCE CHECKS FOR EQUILIBRIUM ITERATION     1


 AVERAGE FORCE                      1.313E+04   TIME AVG. FORCE       6.808E+03
 LARGEST SCALED RESIDUAL FORCE     -8.527E-13   AT NODE          4   DOF  1
   INSTANCE: CUBE_ASSEMBLY                                                                   
  CORRESPONDING RESIDUAL FORCE     -8.527E-13
 LARGEST INCREMENT OF DISP.         1.000E-05   AT NODE          1   DOF  2
   INSTANCE: CUBE_ASSEMBLY                                                                   
 LARGEST CORRECTION TO DISP.        3.680E-20   AT NODE          2   DOF  3
   INSTANCE: CUBE_ASSEMBLY                                                                   
          THE FORCE     EQUILIBRIUM RESPONSE WAS LINEAR IN THIS INCREMENT

 ITERATION SUMMARY FOR THE INCREMENT:   1 TOTAL ITERATIONS, OF WHICH
   0 ARE SEVERE DISCONTINUITY ITERATIONS AND  1 ARE EQUILIBRIUM ITERATIONS.

 TIME INCREMENT COMPLETED   1.00    ,  FRACTION OF STEP COMPLETED  0.250    
 STEP TIME COMPLETED        25.0    ,  TOTAL TIME COMPLETED         25.0    


  INCREMENT    26 STARTS. ATTEMPT NUMBER  1, TIME INCREMENT   1.00    
 
	SYMMETRIC NEW DIRECT SPARSE SOLVER RUNNING ON
 	1 HOST x 1 MPI RANK PER HOST x 1 THREAD PER RANK
        NUMBER OF EQUATIONS:  24
        NUMBER OF RHS:        1
        NUMBER OF FLOPS:      4.900e+03
        SOLVER ELAPSED TIME:  0ms

               CONVERGENCE CHECKS FOR EQUILIBRIUM ITERATION     1


 AVERAGE FORCE                      1.365E+04   TIME AVG. FORCE       7.071E+03
 LARGEST SCALED RESIDUAL FORCE      7.958E-13   AT NODE          5   DOF  3
   INSTANCE: CUBE_ASSEMBLY                                                                   
  CORRESPONDING RESIDUAL FORCE      7.958E-13
 LARGEST INCREMENT OF DISP.         1.000E-05   AT NODE          1   DOF  2
   INSTANCE: CUBE_ASSEMBLY                                                                   
 LARGEST CORRECTION TO DISP.       -4.766E-20   AT NODE          2   DOF  3
   INSTANCE: CUBE_ASSEMBLY                                                                   
          THE FORCE     EQUILIBRIUM RESPONSE WAS LINEAR IN THIS INCREMENT

 ITERATION SUMMARY FOR THE INCREMENT:   1 TOTAL ITERATIONS, OF WHICH
   0 ARE SEVERE DISCONTINUITY ITERATIONS AND  1 ARE EQUILIBRIUM ITERATIONS.

 TIME INCREMENT COMPLETED   1.00    ,  FRACTION OF STEP COMPLETED  0.260    
 STEP TIME COMPLETED        26.0    ,  TOTAL TIME COMPLETED         26.0    


  INCREMENT    27 STARTS. ATTEMPT NUMBER  1, TIME INCREMENT   1.00    
 
	SYMMETRIC NEW DIRECT SPARSE SOLVER RUNNING ON
 	1 HOST x 1 MPI RANK PER HOST x 1 THREAD PER RANK
        NUMBER OF EQUATIONS:  24
        NUMBER OF RHS:        1
        NUMBER OF FLOPS:      4.900e+03
        SOLVER ELAPSED TIME:  0ms

               CONVERGENCE CHECKS FOR EQUILIBRIUM ITERATION     1


 AVERAGE FORCE                      1.418E+04   TIME AVG. FORCE       7.334E+03
 LARGEST SCALED RESIDUAL FORCE      7.105E-13   AT NODE          4   DOF  1
   INSTANCE: CUBE_ASSEMBLY                                                                   
  CORRESPONDING RESIDUAL FORCE      7.105E-13
 LARGEST INCREMENT OF DISP.         1.000E-05   AT NODE          1   DOF  2
   INSTANCE: CUBE_ASSEMBLY                                                                   
 LARGEST CORRECTION TO DISP.       -5.421E-20   AT NODE          1   DOF  2
   INSTANCE: CUBE_ASSEMBLY                                                                   
          THE FORCE     EQUILIBRIUM RESPONSE WAS LINEAR IN THIS INCREMENT

 ITERATION SUMMARY FOR THE INCREMENT:   1 TOTAL ITERATIONS, OF WHICH
   0 ARE SEVERE DISCONTINUITY ITERATIONS AND  1 ARE EQUILIBRIUM ITERATIONS.

 TIME INCREMENT COMPLETED   1.00    ,  FRACTION OF STEP COMPLETED  0.270    
 STEP TIME COMPLETED        27.0    ,  TOTAL TIME COMPLETED         27.0    


  INCREMENT    28 STARTS. ATTEMPT NUMBER  1, TIME INCREMENT   1.00    
 
	SYMMETRIC NEW DIRECT SPARSE SOLVER RUNNING ON
 	1 HOST x 1 MPI RANK PER HOST x 1 THREAD PER RANK
        NUMBER OF EQUATIONS:  24
        NUMBER OF RHS:        1
        NUMBER OF FLOPS:      4.900e+03
        SOLVER ELAPSED TIME:  0ms

               CONVERGENCE CHECKS FOR EQUILIBRIUM ITERATION     1


 AVERAGE FORCE                      1.470E+04   TIME AVG. FORCE       7.597E+03
 LARGEST SCALED RESIDUAL FORCE      7.958E-13   AT NODE          2   DOF  1
   INSTANCE: CUBE_ASSEMBLY                                                                   
  CORRESPONDING RESIDUAL FORCE      7.958E-13
 LARGEST INCREMENT OF DISP.         1.000E-05   AT NODE          1   DOF  2
   INSTANCE: CUBE_ASSEMBLY                                                                   
 LARGEST CORRECTION TO DISP.       -5.955E-20   AT NODE          5   DOF  3
   INSTANCE: CUBE_ASSEMBLY                                                                   
          THE FORCE     EQUILIBRIUM RESPONSE WAS LINEAR IN THIS INCREMENT

 ITERATION SUMMARY FOR THE INCREMENT:   1 TOTAL ITERATIONS, OF WHICH
   0 ARE SEVERE DISCONTINUITY ITERATIONS AND  1 ARE EQUILIBRIUM ITERATIONS.

 TIME INCREMENT COMPLETED   1.00    ,  FRACTION OF STEP COMPLETED  0.280    
 STEP TIME COMPLETED        28.0    ,  TOTAL TIME COMPLETED         28.0    


  INCREMENT    29 STARTS. ATTEMPT NUMBER  1, TIME INCREMENT   1.00    
 
	SYMMETRIC NEW DIRECT SPARSE SOLVER RUNNING ON
 	1 HOST x 1 MPI RANK PER HOST x 1 THREAD PER RANK
        NUMBER OF EQUATIONS:  24
        NUMBER OF RHS:        1
        NUMBER OF FLOPS:      4.900e+03
        SOLVER ELAPSED TIME:  0ms

               CONVERGENCE CHECKS FOR EQUILIBRIUM ITERATION     1


 AVERAGE FORCE                      1.523E+04   TIME AVG. FORCE       7.860E+03
 LARGEST SCALED RESIDUAL FORCE      3.411E-13   AT NODE          1   DOF  3
   INSTANCE: CUBE_ASSEMBLY                                                                   
  CORRESPONDING RESIDUAL FORCE      3.411E-13
 LARGEST INCREMENT OF DISP.         1.000E-05   AT NODE          1   DOF  2
   INSTANCE: CUBE_ASSEMBLY                                                                   
 LARGEST CORRECTION TO DISP.        8.088E-20   AT NODE          5   DOF  3
   INSTANCE: CUBE_ASSEMBLY                                                                   
          THE FORCE     EQUILIBRIUM RESPONSE WAS LINEAR IN THIS INCREMENT

 ITERATION SUMMARY FOR THE INCREMENT:   1 TOTAL ITERATIONS, OF WHICH
   0 ARE SEVERE DISCONTINUITY ITERATIONS AND  1 ARE EQUILIBRIUM ITERATIONS.

 TIME INCREMENT COMPLETED   1.00    ,  FRACTION OF STEP COMPLETED  0.290    
 STEP TIME COMPLETED        29.0    ,  TOTAL TIME COMPLETED         29.0    


  INCREMENT    30 STARTS. ATTEMPT NUMBER  1, TIME INCREMENT   1.00    
 
	SYMMETRIC NEW DIRECT SPARSE SOLVER RUNNING ON
 	1 HOST x 1 MPI RANK PER HOST x 1 THREAD PER RANK
        NUMBER OF EQUATIONS:  24
        NUMBER OF RHS:        1
        NUMBER OF FLOPS:      4.900e+03
        SOLVER ELAPSED TIME:  0ms

               CONVERGENCE CHECKS FOR EQUILIBRIUM ITERATION     1


 AVERAGE FORCE                      1.575E+04   TIME AVG. FORCE       8.123E+03
 LARGEST SCALED RESIDUAL FORCE      6.821E-13   AT NODE          1   DOF  1
   INSTANCE: CUBE_ASSEMBLY                                                                   
  CORRESPONDING RESIDUAL FORCE      6.821E-13
 LARGEST INCREMENT OF DISP.         1.000E-05   AT NODE          1   DOF  2
   INSTANCE: CUBE_ASSEMBLY                                                                   
 LARGEST CORRECTION TO DISP.       -8.391E-20   AT NODE          2   DOF  1
   INSTANCE: CUBE_ASSEMBLY                                                                   
          THE FORCE     EQUILIBRIUM RESPONSE WAS LINEAR IN THIS INCREMENT

 ITERATION SUMMARY FOR THE INCREMENT:   1 TOTAL ITERATIONS, OF WHICH
   0 ARE SEVERE DISCONTINUITY ITERATIONS AND  1 ARE EQUILIBRIUM ITERATIONS.

 TIME INCREMENT COMPLETED   1.00    ,  FRACTION OF STEP COMPLETED  0.300    
 STEP TIME COMPLETED        30.0    ,  TOTAL TIME COMPLETED         30.0    


  INCREMENT    31 STARTS. ATTEMPT NUMBER  1, TIME INCREMENT   1.00    
 
	SYMMETRIC NEW DIRECT SPARSE SOLVER RUNNING ON
 	1 HOST x 1 MPI RANK PER HOST x 1 THREAD PER RANK
        NUMBER OF EQUATIONS:  24
        NUMBER OF RHS:        1
        NUMBER OF FLOPS:      4.900e+03
        SOLVER ELAPSED TIME:  0ms

               CONVERGENCE CHECKS FOR EQUILIBRIUM ITERATION     1


 AVERAGE FORCE                      1.628E+04   TIME AVG. FORCE       8.386E+03
 LARGEST SCALED RESIDUAL FORCE      1.620E-12   AT NODE          2   DOF  3
   INSTANCE: CUBE_ASSEMBLY                                                                   
  CORRESPONDING RESIDUAL FORCE      1.620E-12
 LARGEST INCREMENT OF DISP.         1.000E-05   AT NODE          1   DOF  2
   INSTANCE: CUBE_ASSEMBLY                                                                   
 LARGEST CORRECTION TO DISP.        5.421E-20   AT NODE          1   DOF  2
   INSTANCE: CUBE_ASSEMBLY                                                                   
          THE FORCE     EQUILIBRIUM RESPONSE WAS LINEAR IN THIS INCREMENT

 ITERATION SUMMARY FOR THE INCREMENT:   1 TOTAL ITERATIONS, OF WHICH
   0 ARE SEVERE DISCONTINUITY ITERATIONS AND  1 ARE EQUILIBRIUM ITERATIONS.

 TIME INCREMENT COMPLETED   1.00    ,  FRACTION OF STEP COMPLETED  0.310    
 STEP TIME COMPLETED        31.0    ,  TOTAL TIME COMPLETED         31.0    


  INCREMENT    32 STARTS. ATTEMPT NUMBER  1, TIME INCREMENT   1.00    
 
	SYMMETRIC NEW DIRECT SPARSE SOLVER RUNNING ON
 	1 HOST x 1 MPI RANK PER HOST x 1 THREAD PER RANK
        NUMBER OF EQUATIONS:  24
        NUMBER OF RHS:        1
        NUMBER OF FLOPS:      4.900e+03
        SOLVER ELAPSED TIME:  1ms

               CONVERGENCE CHECKS FOR EQUILIBRIUM ITERATION     1


 AVERAGE FORCE                      1.680E+04   TIME AVG. FORCE       8.649E+03
 LARGEST SCALED RESIDUAL FORCE     -5.684E-13   AT NODE          1   DOF  3
   INSTANCE: CUBE_ASSEMBLY                                                                   
  CORRESPONDING RESIDUAL FORCE     -5.684E-13
 LARGEST INCREMENT OF DISP.         1.000E-05   AT NODE          1   DOF  2
   INSTANCE: CUBE_ASSEMBLY                                                                   
 LARGEST CORRECTION TO DISP.       -5.130E-20   AT NODE          6   DOF  3
   INSTANCE: CUBE_ASSEMBLY                                                                   
          THE FORCE     EQUILIBRIUM RESPONSE WAS LINEAR IN THIS INCREMENT

 ITERATION SUMMARY FOR THE INCREMENT:   1 TOTAL ITERATIONS, OF WHICH
   0 ARE SEVERE DISCONTINUITY ITERATIONS AND  1 ARE EQUILIBRIUM ITERATIONS.

 TIME INCREMENT COMPLETED   1.00    ,  FRACTION OF STEP COMPLETED  0.320    
 STEP TIME COMPLETED        32.0    ,  TOTAL TIME COMPLETED         32.0    


  INCREMENT    33 STARTS. ATTEMPT NUMBER  1, TIME INCREMENT   1.00    
 
	SYMMETRIC NEW DIRECT SPARSE SOLVER RUNNING ON
 	1 HOST x 1 MPI RANK PER HOST x 1 THREAD PER RANK
        NUMBER OF EQUATIONS:  24
        NUMBER OF RHS:        1
        NUMBER OF FLOPS:      4.900e+03
        SOLVER ELAPSED TIME:  0ms

               CONVERGENCE CHECKS FOR EQUILIBRIUM ITERATION     1


 AVERAGE FORCE                      1.733E+04   TIME AVG. FORCE       8.912E+03
 LARGEST SCALED RESIDUAL FORCE     -1.023E-12   AT NODE          2   DOF  3
   INSTANCE: CUBE_ASSEMBLY                                                                   
  CORRESPONDING RESIDUAL FORCE     -1.023E-12
 LARGEST INCREMENT OF DISP.         1.000E-05   AT NODE          1   DOF  2
   INSTANCE: CUBE_ASSEMBLY                                                                   
 LARGEST CORRECTION TO DISP.        7.794E-20   AT NODE          2   DOF  3
   INSTANCE: CUBE_ASSEMBLY                                                                   
          THE FORCE     EQUILIBRIUM RESPONSE WAS LINEAR IN THIS INCREMENT

 ITERATION SUMMARY FOR THE INCREMENT:   1 TOTAL ITERATIONS, OF WHICH
   0 ARE SEVERE DISCONTINUITY ITERATIONS AND  1 ARE EQUILIBRIUM ITERATIONS.

 TIME INCREMENT COMPLETED   1.00    ,  FRACTION OF STEP COMPLETED  0.330    
 STEP TIME COMPLETED        33.0    ,  TOTAL TIME COMPLETED         33.0    


  INCREMENT    34 STARTS. ATTEMPT NUMBER  1, TIME INCREMENT   1.00    
 
	SYMMETRIC NEW DIRECT SPARSE SOLVER RUNNING ON
 	1 HOST x 1 MPI RANK PER HOST x 1 THREAD PER RANK
        NUMBER OF EQUATIONS:  24
        NUMBER OF RHS:        1
        NUMBER OF FLOPS:      4.900e+03
        SOLVER ELAPSED TIME:  0ms

               CONVERGENCE CHECKS FOR EQUILIBRIUM ITERATION     1


 AVERAGE FORCE                      1.785E+04   TIME AVG. FORCE       9.175E+03
 LARGEST SCALED RESIDUAL FORCE     -1.052E-12   AT NODE          5   DOF  3
   INSTANCE: CUBE_ASSEMBLY                                                                   
  CORRESPONDING RESIDUAL FORCE     -1.052E-12
 LARGEST INCREMENT OF DISP.         1.000E-05   AT NODE          1   DOF  2
   INSTANCE: CUBE_ASSEMBLY                                                                   
 LARGEST CORRECTION TO DISP.       -1.019E-19   AT NODE          2   DOF  3
   INSTANCE: CUBE_ASSEMBLY                                                                   
          THE FORCE     EQUILIBRIUM RESPONSE WAS LINEAR IN THIS INCREMENT

 ITERATION SUMMARY FOR THE INCREMENT:   1 TOTAL ITERATIONS, OF WHICH
   0 ARE SEVERE DISCONTINUITY ITERATIONS AND  1 ARE EQUILIBRIUM ITERATIONS.

 TIME INCREMENT COMPLETED   1.00    ,  FRACTION OF STEP COMPLETED  0.340    
 STEP TIME COMPLETED        34.0    ,  TOTAL TIME COMPLETED         34.0    


  INCREMENT    35 STARTS. ATTEMPT NUMBER  1, TIME INCREMENT   1.00    
 
	SYMMETRIC NEW DIRECT SPARSE SOLVER RUNNING ON
 	1 HOST x 1 MPI RANK PER HOST x 1 THREAD PER RANK
        NUMBER OF EQUATIONS:  24
        NUMBER OF RHS:        1
        NUMBER OF FLOPS:      4.900e+03
        SOLVER ELAPSED TIME:  0ms

               CONVERGENCE CHECKS FOR EQUILIBRIUM ITERATION     1


 AVERAGE FORCE                      1.838E+04   TIME AVG. FORCE       9.438E+03
 LARGEST SCALED RESIDUAL FORCE     -9.095E-13   AT NODE          1   DOF  3
   INSTANCE: CUBE_ASSEMBLY                                                                   
  CORRESPONDING RESIDUAL FORCE     -9.095E-13
 LARGEST INCREMENT OF DISP.         1.000E-05   AT NODE          1   DOF  2
   INSTANCE: CUBE_ASSEMBLY                                                                   
 LARGEST CORRECTION TO DISP.        9.967E-20   AT NODE          1   DOF  3
   INSTANCE: CUBE_ASSEMBLY                                                                   
          THE FORCE     EQUILIBRIUM RESPONSE WAS LINEAR IN THIS INCREMENT

 ITERATION SUMMARY FOR THE INCREMENT:   1 TOTAL ITERATIONS, OF WHICH
   0 ARE SEVERE DISCONTINUITY ITERATIONS AND  1 ARE EQUILIBRIUM ITERATIONS.

 TIME INCREMENT COMPLETED   1.00    ,  FRACTION OF STEP COMPLETED  0.350    
 STEP TIME COMPLETED        35.0    ,  TOTAL TIME COMPLETED         35.0    


  INCREMENT    36 STARTS. ATTEMPT NUMBER  1, TIME INCREMENT   1.00    
 
	SYMMETRIC NEW DIRECT SPARSE SOLVER RUNNING ON
 	1 HOST x 1 MPI RANK PER HOST x 1 THREAD PER RANK
        NUMBER OF EQUATIONS:  24
        NUMBER OF RHS:        1
        NUMBER OF FLOPS:      4.900e+03
        SOLVER ELAPSED TIME:  0ms

               CONVERGENCE CHECKS FOR EQUILIBRIUM ITERATION     1


 AVERAGE FORCE                      1.890E+04   TIME AVG. FORCE       9.700E+03
 LARGEST SCALED RESIDUAL FORCE      1.307E-12   AT NODE          2   DOF  3
   INSTANCE: CUBE_ASSEMBLY                                                                   
  CORRESPONDING RESIDUAL FORCE      1.307E-12
 LARGEST INCREMENT OF DISP.         1.000E-05   AT NODE          1   DOF  2
   INSTANCE: CUBE_ASSEMBLY                                                                   
 LARGEST CORRECTION TO DISP.       -1.141E-19   AT NODE          1   DOF  3
   INSTANCE: CUBE_ASSEMBLY                                                                   
          THE FORCE     EQUILIBRIUM RESPONSE WAS LINEAR IN THIS INCREMENT

 ITERATION SUMMARY FOR THE INCREMENT:   1 TOTAL ITERATIONS, OF WHICH
   0 ARE SEVERE DISCONTINUITY ITERATIONS AND  1 ARE EQUILIBRIUM ITERATIONS.

 TIME INCREMENT COMPLETED   1.00    ,  FRACTION OF STEP COMPLETED  0.360    
 STEP TIME COMPLETED        36.0    ,  TOTAL TIME COMPLETED         36.0    


  INCREMENT    37 STARTS. ATTEMPT NUMBER  1, TIME INCREMENT   1.00    
 
	SYMMETRIC NEW DIRECT SPARSE SOLVER RUNNING ON
 	1 HOST x 1 MPI RANK PER HOST x 1 THREAD PER RANK
        NUMBER OF EQUATIONS:  24
        NUMBER OF RHS:        1
        NUMBER OF FLOPS:      4.900e+03
        SOLVER ELAPSED TIME:  0ms

               CONVERGENCE CHECKS FOR EQUILIBRIUM ITERATION     1


 AVERAGE FORCE                      1.943E+04   TIME AVG. FORCE       9.963E+03
 LARGEST SCALED RESIDUAL FORCE      1.251E-12   AT NODE          1   DOF  3
   INSTANCE: CUBE_ASSEMBLY                                                                   
  CORRESPONDING RESIDUAL FORCE      1.251E-12
 LARGEST INCREMENT OF DISP.         1.000E-05   AT NODE          1   DOF  2
   INSTANCE: CUBE_ASSEMBLY                                                                   
 LARGEST CORRECTION TO DISP.       -7.335E-20   AT NODE          4   DOF  1
   INSTANCE: CUBE_ASSEMBLY                                                                   
          THE FORCE     EQUILIBRIUM RESPONSE WAS LINEAR IN THIS INCREMENT

 ITERATION SUMMARY FOR THE INCREMENT:   1 TOTAL ITERATIONS, OF WHICH
   0 ARE SEVERE DISCONTINUITY ITERATIONS AND  1 ARE EQUILIBRIUM ITERATIONS.

 TIME INCREMENT COMPLETED   1.00    ,  FRACTION OF STEP COMPLETED  0.370    
 STEP TIME COMPLETED        37.0    ,  TOTAL TIME COMPLETED         37.0    


  INCREMENT    38 STARTS. ATTEMPT NUMBER  1, TIME INCREMENT   1.00    
 
	SYMMETRIC NEW DIRECT SPARSE SOLVER RUNNING ON
 	1 HOST x 1 MPI RANK PER HOST x 1 THREAD PER RANK
        NUMBER OF EQUATIONS:  24
        NUMBER OF RHS:        1
        NUMBER OF FLOPS:      4.900e+03
        SOLVER ELAPSED TIME:  0ms

               CONVERGENCE CHECKS FOR EQUILIBRIUM ITERATION     1


 AVERAGE FORCE                      1.995E+04   TIME AVG. FORCE       1.023E+04
 LARGEST SCALED RESIDUAL FORCE     -1.478E-12   AT NODE          2   DOF  3
   INSTANCE: CUBE_ASSEMBLY                                                                   
  CORRESPONDING RESIDUAL FORCE     -1.478E-12
 LARGEST INCREMENT OF DISP.         1.000E-05   AT NODE          1   DOF  2
   INSTANCE: CUBE_ASSEMBLY                                                                   
 LARGEST CORRECTION TO DISP.        7.649E-20   AT NODE          4   DOF  1
   INSTANCE: CUBE_ASSEMBLY                                                                   
          THE FORCE     EQUILIBRIUM RESPONSE WAS LINEAR IN THIS INCREMENT

 ITERATION SUMMARY FOR THE INCREMENT:   1 TOTAL ITERATIONS, OF WHICH
   0 ARE SEVERE DISCONTINUITY ITERATIONS AND  1 ARE EQUILIBRIUM ITERATIONS.

 TIME INCREMENT COMPLETED   1.00    ,  FRACTION OF STEP COMPLETED  0.380    
 STEP TIME COMPLETED        38.0    ,  TOTAL TIME COMPLETED         38.0    


  INCREMENT    39 STARTS. ATTEMPT NUMBER  1, TIME INCREMENT   1.00    
 
	SYMMETRIC NEW DIRECT SPARSE SOLVER RUNNING ON
 	1 HOST x 1 MPI RANK PER HOST x 1 THREAD PER RANK
        NUMBER OF EQUATIONS:  24
        NUMBER OF RHS:        1
        NUMBER OF FLOPS:      4.900e+03
        SOLVER ELAPSED TIME:  1ms

               CONVERGENCE CHECKS FOR EQUILIBRIUM ITERATION     1


 AVERAGE FORCE                      2.048E+04   TIME AVG. FORCE       1.049E+04
 LARGEST SCALED RESIDUAL FORCE     -8.527E-13   AT NODE          2   DOF  3
   INSTANCE: CUBE_ASSEMBLY                                                                   
  CORRESPONDING RESIDUAL FORCE     -8.527E-13
 LARGEST INCREMENT OF DISP.         1.000E-05   AT NODE          1   DOF  2
   INSTANCE: CUBE_ASSEMBLY                                                                   
 LARGEST CORRECTION TO DISP.       -8.231E-20   AT NODE          3   DOF  1
   INSTANCE: CUBE_ASSEMBLY                                                                   
          THE FORCE     EQUILIBRIUM RESPONSE WAS LINEAR IN THIS INCREMENT

 ITERATION SUMMARY FOR THE INCREMENT:   1 TOTAL ITERATIONS, OF WHICH
   0 ARE SEVERE DISCONTINUITY ITERATIONS AND  1 ARE EQUILIBRIUM ITERATIONS.

 TIME INCREMENT COMPLETED   1.00    ,  FRACTION OF STEP COMPLETED  0.390    
 STEP TIME COMPLETED        39.0    ,  TOTAL TIME COMPLETED         39.0    


  INCREMENT    40 STARTS. ATTEMPT NUMBER  1, TIME INCREMENT   1.00    
 
	SYMMETRIC NEW DIRECT SPARSE SOLVER RUNNING ON
 	1 HOST x 1 MPI RANK PER HOST x 1 THREAD PER RANK
        NUMBER OF EQUATIONS:  24
        NUMBER OF RHS:        1
        NUMBER OF FLOPS:      4.900e+03
        SOLVER ELAPSED TIME:  0ms

               CONVERGENCE CHECKS FOR EQUILIBRIUM ITERATION     1


 AVERAGE FORCE                      2.100E+04   TIME AVG. FORCE       1.075E+04
 LARGEST SCALED RESIDUAL FORCE     -1.137E-12   AT NODE          3   DOF  1
   INSTANCE: CUBE_ASSEMBLY                                                                   
  CORRESPONDING RESIDUAL FORCE     -1.137E-12
 LARGEST INCREMENT OF DISP.         1.000E-05   AT NODE          1   DOF  2
   INSTANCE: CUBE_ASSEMBLY                                                                   
 LARGEST CORRECTION TO DISP.       -6.736E-20   AT NODE          1   DOF  1
   INSTANCE: CUBE_ASSEMBLY                                                                   
          THE FORCE     EQUILIBRIUM RESPONSE WAS LINEAR IN THIS INCREMENT

 ITERATION SUMMARY FOR THE INCREMENT:   1 TOTAL ITERATIONS, OF WHICH
   0 ARE SEVERE DISCONTINUITY ITERATIONS AND  1 ARE EQUILIBRIUM ITERATIONS.

 TIME INCREMENT COMPLETED   1.00    ,  FRACTION OF STEP COMPLETED  0.400    
 STEP TIME COMPLETED        40.0    ,  TOTAL TIME COMPLETED         40.0    


  INCREMENT    41 STARTS. ATTEMPT NUMBER  1, TIME INCREMENT   1.00    
 
	SYMMETRIC NEW DIRECT SPARSE SOLVER RUNNING ON
 	1 HOST x 1 MPI RANK PER HOST x 1 THREAD PER RANK
        NUMBER OF EQUATIONS:  24
        NUMBER OF RHS:        1
        NUMBER OF FLOPS:      4.900e+03
        SOLVER ELAPSED TIME:  1ms

               CONVERGENCE CHECKS FOR EQUILIBRIUM ITERATION     1


 AVERAGE FORCE                      2.153E+04   TIME AVG. FORCE       1.101E+04
 LARGEST SCALED RESIDUAL FORCE     -1.137E-12   AT NODE          3   DOF  1
   INSTANCE: CUBE_ASSEMBLY                                                                   
  CORRESPONDING RESIDUAL FORCE     -1.137E-12
 LARGEST INCREMENT OF DISP.         1.000E-05   AT NODE          1   DOF  2
   INSTANCE: CUBE_ASSEMBLY                                                                   
 LARGEST CORRECTION TO DISP.       -4.531E-20   AT NODE          2   DOF  3
   INSTANCE: CUBE_ASSEMBLY                                                                   
          THE FORCE     EQUILIBRIUM RESPONSE WAS LINEAR IN THIS INCREMENT

 ITERATION SUMMARY FOR THE INCREMENT:   1 TOTAL ITERATIONS, OF WHICH
   0 ARE SEVERE DISCONTINUITY ITERATIONS AND  1 ARE EQUILIBRIUM ITERATIONS.

 TIME INCREMENT COMPLETED   1.00    ,  FRACTION OF STEP COMPLETED  0.410    
 STEP TIME COMPLETED        41.0    ,  TOTAL TIME COMPLETED         41.0    


  INCREMENT    42 STARTS. ATTEMPT NUMBER  1, TIME INCREMENT   1.00    
 
	SYMMETRIC NEW DIRECT SPARSE SOLVER RUNNING ON
 	1 HOST x 1 MPI RANK PER HOST x 1 THREAD PER RANK
        NUMBER OF EQUATIONS:  24
        NUMBER OF RHS:        1
        NUMBER OF FLOPS:      4.900e+03
        SOLVER ELAPSED TIME:  0ms

               CONVERGENCE CHECKS FOR EQUILIBRIUM ITERATION     1


 AVERAGE FORCE                      2.205E+04   TIME AVG. FORCE       1.128E+04
 LARGEST SCALED RESIDUAL FORCE      1.478E-12   AT NODE          5   DOF  3
   INSTANCE: CUBE_ASSEMBLY                                                                   
  CORRESPONDING RESIDUAL FORCE      1.478E-12
 LARGEST INCREMENT OF DISP.         1.000E-05   AT NODE          1   DOF  2
   INSTANCE: CUBE_ASSEMBLY                                                                   
 LARGEST CORRECTION TO DISP.        7.411E-20   AT NODE          2   DOF  3
   INSTANCE: CUBE_ASSEMBLY                                                                   
          THE FORCE     EQUILIBRIUM RESPONSE WAS LINEAR IN THIS INCREMENT

 ITERATION SUMMARY FOR THE INCREMENT:   1 TOTAL ITERATIONS, OF WHICH
   0 ARE SEVERE DISCONTINUITY ITERATIONS AND  1 ARE EQUILIBRIUM ITERATIONS.

 TIME INCREMENT COMPLETED   1.00    ,  FRACTION OF STEP COMPLETED  0.420    
 STEP TIME COMPLETED        42.0    ,  TOTAL TIME COMPLETED         42.0    


  INCREMENT    43 STARTS. ATTEMPT NUMBER  1, TIME INCREMENT   1.00    
 
	SYMMETRIC NEW DIRECT SPARSE SOLVER RUNNING ON
 	1 HOST x 1 MPI RANK PER HOST x 1 THREAD PER RANK
        NUMBER OF EQUATIONS:  24
        NUMBER OF RHS:        1
        NUMBER OF FLOPS:      4.900e+03
        SOLVER ELAPSED TIME:  0ms

               CONVERGENCE CHECKS FOR EQUILIBRIUM ITERATION     1


 AVERAGE FORCE                      2.258E+04   TIME AVG. FORCE       1.154E+04
 LARGEST SCALED RESIDUAL FORCE     -8.527E-13   AT NODE          5   DOF  3
   INSTANCE: CUBE_ASSEMBLY                                                                   
  CORRESPONDING RESIDUAL FORCE     -8.527E-13
 LARGEST INCREMENT OF DISP.         1.000E-05   AT NODE          1   DOF  2
   INSTANCE: CUBE_ASSEMBLY                                                                   
 LARGEST CORRECTION TO DISP.       -1.133E-19   AT NODE          3   DOF  1
   INSTANCE: CUBE_ASSEMBLY                                                                   
          THE FORCE     EQUILIBRIUM RESPONSE WAS LINEAR IN THIS INCREMENT

 ITERATION SUMMARY FOR THE INCREMENT:   1 TOTAL ITERATIONS, OF WHICH
   0 ARE SEVERE DISCONTINUITY ITERATIONS AND  1 ARE EQUILIBRIUM ITERATIONS.

 TIME INCREMENT COMPLETED   1.00    ,  FRACTION OF STEP COMPLETED  0.430    
 STEP TIME COMPLETED        43.0    ,  TOTAL TIME COMPLETED         43.0    


  INCREMENT    44 STARTS. ATTEMPT NUMBER  1, TIME INCREMENT   1.00    
 
	SYMMETRIC NEW DIRECT SPARSE SOLVER RUNNING ON
 	1 HOST x 1 MPI RANK PER HOST x 1 THREAD PER RANK
        NUMBER OF EQUATIONS:  24
        NUMBER OF RHS:        1
        NUMBER OF FLOPS:      4.900e+03
        SOLVER ELAPSED TIME:  0ms

               CONVERGENCE CHECKS FOR EQUILIBRIUM ITERATION     1


 AVERAGE FORCE                      2.310E+04   TIME AVG. FORCE       1.180E+04
 LARGEST SCALED RESIDUAL FORCE      9.095E-13   AT NODE          2   DOF  1
   INSTANCE: CUBE_ASSEMBLY                                                                   
  CORRESPONDING RESIDUAL FORCE      9.095E-13
 LARGEST INCREMENT OF DISP.         1.000E-05   AT NODE          1   DOF  2
   INSTANCE: CUBE_ASSEMBLY                                                                   
 LARGEST CORRECTION TO DISP.        1.165E-19   AT NODE          3   DOF  1
   INSTANCE: CUBE_ASSEMBLY                                                                   
          THE FORCE     EQUILIBRIUM RESPONSE WAS LINEAR IN THIS INCREMENT

 ITERATION SUMMARY FOR THE INCREMENT:   1 TOTAL ITERATIONS, OF WHICH
   0 ARE SEVERE DISCONTINUITY ITERATIONS AND  1 ARE EQUILIBRIUM ITERATIONS.

 TIME INCREMENT COMPLETED   1.00    ,  FRACTION OF STEP COMPLETED  0.440    
 STEP TIME COMPLETED        44.0    ,  TOTAL TIME COMPLETED         44.0    


  INCREMENT    45 STARTS. ATTEMPT NUMBER  1, TIME INCREMENT   1.00    
 
	SYMMETRIC NEW DIRECT SPARSE SOLVER RUNNING ON
 	1 HOST x 1 MPI RANK PER HOST x 1 THREAD PER RANK
        NUMBER OF EQUATIONS:  24
        NUMBER OF RHS:        1
        NUMBER OF FLOPS:      4.900e+03
        SOLVER ELAPSED TIME:  0ms

               CONVERGENCE CHECKS FOR EQUILIBRIUM ITERATION     1


 AVERAGE FORCE                      2.363E+04   TIME AVG. FORCE       1.207E+04
 LARGEST SCALED RESIDUAL FORCE      1.990E-12   AT NODE          4   DOF  1
   INSTANCE: CUBE_ASSEMBLY                                                                   
  CORRESPONDING RESIDUAL FORCE      1.990E-12
 LARGEST INCREMENT OF DISP.         1.000E-05   AT NODE          1   DOF  2
   INSTANCE: CUBE_ASSEMBLY                                                                   
 LARGEST CORRECTION TO DISP.       -9.307E-20   AT NODE          4   DOF  1
   INSTANCE: CUBE_ASSEMBLY                                                                   
          THE FORCE     EQUILIBRIUM RESPONSE WAS LINEAR IN THIS INCREMENT

 ITERATION SUMMARY FOR THE INCREMENT:   1 TOTAL ITERATIONS, OF WHICH
   0 ARE SEVERE DISCONTINUITY ITERATIONS AND  1 ARE EQUILIBRIUM ITERATIONS.

 TIME INCREMENT COMPLETED   1.00    ,  FRACTION OF STEP COMPLETED  0.450    
 STEP TIME COMPLETED        45.0    ,  TOTAL TIME COMPLETED         45.0    


  INCREMENT    46 STARTS. ATTEMPT NUMBER  1, TIME INCREMENT   1.00    
 
	SYMMETRIC NEW DIRECT SPARSE SOLVER RUNNING ON
 	1 HOST x 1 MPI RANK PER HOST x 1 THREAD PER RANK
        NUMBER OF EQUATIONS:  24
        NUMBER OF RHS:        1
        NUMBER OF FLOPS:      4.900e+03
        SOLVER ELAPSED TIME:  0ms

               CONVERGENCE CHECKS FOR EQUILIBRIUM ITERATION     1


 AVERAGE FORCE                      2.415E+04   TIME AVG. FORCE       1.233E+04
 LARGEST SCALED RESIDUAL FORCE     -1.137E-12   AT NODE          6   DOF  3
   INSTANCE: CUBE_ASSEMBLY                                                                   
  CORRESPONDING RESIDUAL FORCE     -1.137E-12
 LARGEST INCREMENT OF DISP.         1.000E-05   AT NODE          1   DOF  2
   INSTANCE: CUBE_ASSEMBLY                                                                   
 LARGEST CORRECTION TO DISP.        1.062E-19   AT NODE          2   DOF  1
   INSTANCE: CUBE_ASSEMBLY                                                                   
          THE FORCE     EQUILIBRIUM RESPONSE WAS LINEAR IN THIS INCREMENT

 ITERATION SUMMARY FOR THE INCREMENT:   1 TOTAL ITERATIONS, OF WHICH
   0 ARE SEVERE DISCONTINUITY ITERATIONS AND  1 ARE EQUILIBRIUM ITERATIONS.

 TIME INCREMENT COMPLETED   1.00    ,  FRACTION OF STEP COMPLETED  0.460    
 STEP TIME COMPLETED        46.0    ,  TOTAL TIME COMPLETED         46.0    


  INCREMENT    47 STARTS. ATTEMPT NUMBER  1, TIME INCREMENT   1.00    
 
	SYMMETRIC NEW DIRECT SPARSE SOLVER RUNNING ON
 	1 HOST x 1 MPI RANK PER HOST x 1 THREAD PER RANK
        NUMBER OF EQUATIONS:  24
        NUMBER OF RHS:        1
        NUMBER OF FLOPS:      4.900e+03
        SOLVER ELAPSED TIME:  0ms

               CONVERGENCE CHECKS FOR EQUILIBRIUM ITERATION     1


 AVERAGE FORCE                      2.468E+04   TIME AVG. FORCE       1.259E+04
 LARGEST SCALED RESIDUAL FORCE     -1.364E-12   AT NODE          6   DOF  3
   INSTANCE: CUBE_ASSEMBLY                                                                   
  CORRESPONDING RESIDUAL FORCE     -1.364E-12
 LARGEST INCREMENT OF DISP.         1.000E-05   AT NODE          1   DOF  2
   INSTANCE: CUBE_ASSEMBLY                                                                   
 LARGEST CORRECTION TO DISP.       -5.589E-20   AT NODE          3   DOF  1
   INSTANCE: CUBE_ASSEMBLY                                                                   
          THE FORCE     EQUILIBRIUM RESPONSE WAS LINEAR IN THIS INCREMENT

 ITERATION SUMMARY FOR THE INCREMENT:   1 TOTAL ITERATIONS, OF WHICH
   0 ARE SEVERE DISCONTINUITY ITERATIONS AND  1 ARE EQUILIBRIUM ITERATIONS.

 TIME INCREMENT COMPLETED   1.00    ,  FRACTION OF STEP COMPLETED  0.470    
 STEP TIME COMPLETED        47.0    ,  TOTAL TIME COMPLETED         47.0    


  INCREMENT    48 STARTS. ATTEMPT NUMBER  1, TIME INCREMENT   1.00    
 
	SYMMETRIC NEW DIRECT SPARSE SOLVER RUNNING ON
 	1 HOST x 1 MPI RANK PER HOST x 1 THREAD PER RANK
        NUMBER OF EQUATIONS:  24
        NUMBER OF RHS:        1
        NUMBER OF FLOPS:      4.900e+03
        SOLVER ELAPSED TIME:  0ms

               CONVERGENCE CHECKS FOR EQUILIBRIUM ITERATION     1


 AVERAGE FORCE                      2.520E+04   TIME AVG. FORCE       1.285E+04
 LARGEST SCALED RESIDUAL FORCE      1.194E-12   AT NODE          4   DOF  1
   INSTANCE: CUBE_ASSEMBLY                                                                   
  CORRESPONDING RESIDUAL FORCE      1.194E-12
 LARGEST INCREMENT OF DISP.         1.000E-05   AT NODE          1   DOF  2
   INSTANCE: CUBE_ASSEMBLY                                                                   
 LARGEST CORRECTION TO DISP.        9.916E-20   AT NODE          4   DOF  1
   INSTANCE: CUBE_ASSEMBLY                                                                   
          THE FORCE     EQUILIBRIUM RESPONSE WAS LINEAR IN THIS INCREMENT

 ITERATION SUMMARY FOR THE INCREMENT:   1 TOTAL ITERATIONS, OF WHICH
   0 ARE SEVERE DISCONTINUITY ITERATIONS AND  1 ARE EQUILIBRIUM ITERATIONS.

 TIME INCREMENT COMPLETED   1.00    ,  FRACTION OF STEP COMPLETED  0.480    
 STEP TIME COMPLETED        48.0    ,  TOTAL TIME COMPLETED         48.0    


  INCREMENT    49 STARTS. ATTEMPT NUMBER  1, TIME INCREMENT   1.00    
 
	SYMMETRIC NEW DIRECT SPARSE SOLVER RUNNING ON
 	1 HOST x 1 MPI RANK PER HOST x 1 THREAD PER RANK
        NUMBER OF EQUATIONS:  24
        NUMBER OF RHS:        1
        NUMBER OF FLOPS:      4.900e+03
        SOLVER ELAPSED TIME:  0ms

               CONVERGENCE CHECKS FOR EQUILIBRIUM ITERATION     1


 AVERAGE FORCE                      2.573E+04   TIME AVG. FORCE       1.312E+04
 LARGEST SCALED RESIDUAL FORCE      1.762E-12   AT NODE          2   DOF  3
   INSTANCE: CUBE_ASSEMBLY                                                                   
  CORRESPONDING RESIDUAL FORCE      1.762E-12
 LARGEST INCREMENT OF DISP.         1.000E-05   AT NODE          1   DOF  2
   INSTANCE: CUBE_ASSEMBLY                                                                   
 LARGEST CORRECTION TO DISP.       -1.462E-19   AT NODE          6   DOF  3
   INSTANCE: CUBE_ASSEMBLY                                                                   
          THE FORCE     EQUILIBRIUM RESPONSE WAS LINEAR IN THIS INCREMENT

 ITERATION SUMMARY FOR THE INCREMENT:   1 TOTAL ITERATIONS, OF WHICH
   0 ARE SEVERE DISCONTINUITY ITERATIONS AND  1 ARE EQUILIBRIUM ITERATIONS.

 TIME INCREMENT COMPLETED   1.00    ,  FRACTION OF STEP COMPLETED  0.490    
 STEP TIME COMPLETED        49.0    ,  TOTAL TIME COMPLETED         49.0    


  INCREMENT    50 STARTS. ATTEMPT NUMBER  1, TIME INCREMENT   1.00    
 
	SYMMETRIC NEW DIRECT SPARSE SOLVER RUNNING ON
 	1 HOST x 1 MPI RANK PER HOST x 1 THREAD PER RANK
        NUMBER OF EQUATIONS:  24
        NUMBER OF RHS:        1
        NUMBER OF FLOPS:      4.900e+03
        SOLVER ELAPSED TIME:  0ms

               CONVERGENCE CHECKS FOR EQUILIBRIUM ITERATION     1


 AVERAGE FORCE                      2.625E+04   TIME AVG. FORCE       1.338E+04
 LARGEST SCALED RESIDUAL FORCE     -1.592E-12   AT NODE          1   DOF  3
   INSTANCE: CUBE_ASSEMBLY                                                                   
  CORRESPONDING RESIDUAL FORCE     -1.592E-12
 LARGEST INCREMENT OF DISP.         1.000E-05   AT NODE          1   DOF  2
   INSTANCE: CUBE_ASSEMBLY                                                                   
 LARGEST CORRECTION TO DISP.        9.788E-20   AT NODE          6   DOF  3
   INSTANCE: CUBE_ASSEMBLY                                                                   
          THE FORCE     EQUILIBRIUM RESPONSE WAS LINEAR IN THIS INCREMENT

 ITERATION SUMMARY FOR THE INCREMENT:   1 TOTAL ITERATIONS, OF WHICH
   0 ARE SEVERE DISCONTINUITY ITERATIONS AND  1 ARE EQUILIBRIUM ITERATIONS.

 TIME INCREMENT COMPLETED   1.00    ,  FRACTION OF STEP COMPLETED  0.500    
 STEP TIME COMPLETED        50.0    ,  TOTAL TIME COMPLETED         50.0    


  INCREMENT    51 STARTS. ATTEMPT NUMBER  1, TIME INCREMENT   1.00    
 
	SYMMETRIC NEW DIRECT SPARSE SOLVER RUNNING ON
 	1 HOST x 1 MPI RANK PER HOST x 1 THREAD PER RANK
        NUMBER OF EQUATIONS:  24
        NUMBER OF RHS:        1
        NUMBER OF FLOPS:      4.900e+03
        SOLVER ELAPSED TIME:  0ms

               CONVERGENCE CHECKS FOR EQUILIBRIUM ITERATION     1


 AVERAGE FORCE                      2.678E+04   TIME AVG. FORCE       1.364E+04
 LARGEST SCALED RESIDUAL FORCE     -1.592E-12   AT NODE          2   DOF  3
   INSTANCE: CUBE_ASSEMBLY                                                                   
  CORRESPONDING RESIDUAL FORCE     -1.592E-12
 LARGEST INCREMENT OF DISP.         1.000E-05   AT NODE          1   DOF  2
   INSTANCE: CUBE_ASSEMBLY                                                                   
 LARGEST CORRECTION TO DISP.        6.607E-20   AT NODE          6   DOF  3
   INSTANCE: CUBE_ASSEMBLY                                                                   
          THE FORCE     EQUILIBRIUM RESPONSE WAS LINEAR IN THIS INCREMENT

 ITERATION SUMMARY FOR THE INCREMENT:   1 TOTAL ITERATIONS, OF WHICH
   0 ARE SEVERE DISCONTINUITY ITERATIONS AND  1 ARE EQUILIBRIUM ITERATIONS.

 TIME INCREMENT COMPLETED   1.00    ,  FRACTION OF STEP COMPLETED  0.510    
 STEP TIME COMPLETED        51.0    ,  TOTAL TIME COMPLETED         51.0    


  INCREMENT    52 STARTS. ATTEMPT NUMBER  1, TIME INCREMENT   1.00    
 
	SYMMETRIC NEW DIRECT SPARSE SOLVER RUNNING ON
 	1 HOST x 1 MPI RANK PER HOST x 1 THREAD PER RANK
        NUMBER OF EQUATIONS:  24
        NUMBER OF RHS:        1
        NUMBER OF FLOPS:      4.900e+03
        SOLVER ELAPSED TIME:  1ms

               CONVERGENCE CHECKS FOR EQUILIBRIUM ITERATION     1


 AVERAGE FORCE                      2.730E+04   TIME AVG. FORCE       1.390E+04
 LARGEST SCALED RESIDUAL FORCE      7.958E-13   AT NODE          1   DOF  3
   INSTANCE: CUBE_ASSEMBLY                                                                   
  CORRESPONDING RESIDUAL FORCE      7.958E-13
 LARGEST INCREMENT OF DISP.         1.000E-05   AT NODE          1   DOF  2
   INSTANCE: CUBE_ASSEMBLY                                                                   
 LARGEST CORRECTION TO DISP.       -1.257E-19   AT NODE          2   DOF  1
   INSTANCE: CUBE_ASSEMBLY                                                                   
          THE FORCE     EQUILIBRIUM RESPONSE WAS LINEAR IN THIS INCREMENT

 ITERATION SUMMARY FOR THE INCREMENT:   1 TOTAL ITERATIONS, OF WHICH
   0 ARE SEVERE DISCONTINUITY ITERATIONS AND  1 ARE EQUILIBRIUM ITERATIONS.

 TIME INCREMENT COMPLETED   1.00    ,  FRACTION OF STEP COMPLETED  0.520    
 STEP TIME COMPLETED        52.0    ,  TOTAL TIME COMPLETED         52.0    


  INCREMENT    53 STARTS. ATTEMPT NUMBER  1, TIME INCREMENT   1.00    
 
	SYMMETRIC NEW DIRECT SPARSE SOLVER RUNNING ON
 	1 HOST x 1 MPI RANK PER HOST x 1 THREAD PER RANK
        NUMBER OF EQUATIONS:  24
        NUMBER OF RHS:        1
        NUMBER OF FLOPS:      4.900e+03
        SOLVER ELAPSED TIME:  0ms

               CONVERGENCE CHECKS FOR EQUILIBRIUM ITERATION     1


 AVERAGE FORCE                      2.783E+04   TIME AVG. FORCE       1.417E+04
 LARGEST SCALED RESIDUAL FORCE     -1.023E-12   AT NODE          1   DOF  1
   INSTANCE: CUBE_ASSEMBLY                                                                   
  CORRESPONDING RESIDUAL FORCE     -1.023E-12
 LARGEST INCREMENT OF DISP.         1.000E-05   AT NODE          1   DOF  2
[...]


  INCREMENT    70 STARTS. ATTEMPT NUMBER  1, TIME INCREMENT   1.00    
 
	SYMMETRIC NEW DIRECT SPARSE SOLVER RUNNING ON
 	1 HOST x 1 MPI RANK PER HOST x 1 THREAD PER RANK
        NUMBER OF EQUATIONS:  24
        NUMBER OF RHS:        1
        NUMBER OF FLOPS:      4.900e+03
        SOLVER ELAPSED TIME:  0ms

               CONVERGENCE CHECKS FOR EQUILIBRIUM ITERATION     1


 AVERAGE FORCE                      3.675E+04   TIME AVG. FORCE       1.863E+04
 LARGEST SCALED RESIDUAL FORCE     -2.274E-12   AT NODE          6   DOF  3
   INSTANCE: CUBE_ASSEMBLY                                                                   
  CORRESPONDING RESIDUAL FORCE     -2.274E-12
 LARGEST INCREMENT OF DISP.         1.000E-05   AT NODE          1   DOF  2
   INSTANCE: CUBE_ASSEMBLY                                                                   
 LARGEST CORRECTION TO DISP.       -1.136E-19   AT NODE          3   DOF  1
   INSTANCE: CUBE_ASSEMBLY                                                                   
          THE FORCE     EQUILIBRIUM RESPONSE WAS LINEAR IN THIS INCREMENT

 ITERATION SUMMARY FOR THE INCREMENT:   1 TOTAL ITERATIONS, OF WHICH
   0 ARE SEVERE DISCONTINUITY ITERATIONS AND  1 ARE EQUILIBRIUM ITERATIONS.

 TIME INCREMENT COMPLETED   1.00    ,  FRACTION OF STEP COMPLETED  0.700    
 STEP TIME COMPLETED        70.0    ,  TOTAL TIME COMPLETED         70.0    


  INCREMENT    71 STARTS. ATTEMPT NUMBER  1, TIME INCREMENT   1.00    
 
	SYMMETRIC NEW DIRECT SPARSE SOLVER RUNNING ON
 	1 HOST x 1 MPI RANK PER HOST x 1 THREAD PER RANK
        NUMBER OF EQUATIONS:  24
        NUMBER OF RHS:        1
        NUMBER OF FLOPS:      4.900e+03
        SOLVER ELAPSED TIME:  0ms

               CONVERGENCE CHECKS FOR EQUILIBRIUM ITERATION     1


 AVERAGE FORCE                      3.728E+04   TIME AVG. FORCE       1.889E+04
 LARGEST SCALED RESIDUAL FORCE      1.592E-12   AT NODE          2   DOF  3
   INSTANCE: CUBE_ASSEMBLY                                                                   
  CORRESPONDING RESIDUAL FORCE      1.592E-12
 LARGEST INCREMENT OF DISP.         1.000E-05   AT NODE          1   DOF  2
   INSTANCE: CUBE_ASSEMBLY                                                                   
 LARGEST CORRECTION TO DISP.       -2.001E-19   AT NODE          5   DOF  3
   INSTANCE: CUBE_ASSEMBLY                                                                   
          THE FORCE     EQUILIBRIUM RESPONSE WAS LINEAR IN THIS INCREMENT

 ITERATION SUMMARY FOR THE INCREMENT:   1 TOTAL ITERATIONS, OF WHICH
   0 ARE SEVERE DISCONTINUITY ITERATIONS AND  1 ARE EQUILIBRIUM ITERATIONS.

 TIME INCREMENT COMPLETED   1.00    ,  FRACTION OF STEP COMPLETED  0.710    
 STEP TIME COMPLETED        71.0    ,  TOTAL TIME COMPLETED         71.0    


  INCREMENT    72 STARTS. ATTEMPT NUMBER  1, TIME INCREMENT   1.00    
 
	SYMMETRIC NEW DIRECT SPARSE SOLVER RUNNING ON
 	1 HOST x 1 MPI RANK PER HOST x 1 THREAD PER RANK
        NUMBER OF EQUATIONS:  24
        NUMBER OF RHS:        1
        NUMBER OF FLOPS:      4.900e+03
        SOLVER ELAPSED TIME:  0ms

               CONVERGENCE CHECKS FOR EQUILIBRIUM ITERATION     1


 AVERAGE FORCE                      3.780E+04   TIME AVG. FORCE       1.916E+04
 LARGEST SCALED RESIDUAL FORCE      1.933E-12   AT NODE          2   DOF  3
   INSTANCE: CUBE_ASSEMBLY                                                                   
  CORRESPONDING RESIDUAL FORCE      1.933E-12
 LARGEST INCREMENT OF DISP.         1.000E-05   AT NODE          1   DOF  2
   INSTANCE: CUBE_ASSEMBLY                                                                   
 LARGEST CORRECTION TO DISP.        2.084E-19   AT NODE          2   DOF  3
   INSTANCE: CUBE_ASSEMBLY                                                                   
          THE FORCE     EQUILIBRIUM RESPONSE WAS LINEAR IN THIS INCREMENT

 ITERATION SUMMARY FOR THE INCREMENT:   1 TOTAL ITERATIONS, OF WHICH
   0 ARE SEVERE DISCONTINUITY ITERATIONS AND  1 ARE EQUILIBRIUM ITERATIONS.

 TIME INCREMENT COMPLETED   1.00    ,  FRACTION OF STEP COMPLETED  0.720    
 STEP TIME COMPLETED        72.0    ,  TOTAL TIME COMPLETED         72.0    


  INCREMENT    73 STARTS. ATTEMPT NUMBER  1, TIME INCREMENT   1.00    
 
	SYMMETRIC NEW DIRECT SPARSE SOLVER RUNNING ON
 	1 HOST x 1 MPI RANK PER HOST x 1 THREAD PER RANK
        NUMBER OF EQUATIONS:  24
        NUMBER OF RHS:        1
        NUMBER OF FLOPS:      4.900e+03
        SOLVER ELAPSED TIME:  0ms

               CONVERGENCE CHECKS FOR EQUILIBRIUM ITERATION     1


 AVERAGE FORCE                      3.833E+04   TIME AVG. FORCE       1.942E+04
 LARGEST SCALED RESIDUAL FORCE      2.160E-12   AT NODE          5   DOF  3
   INSTANCE: CUBE_ASSEMBLY                                                                   
  CORRESPONDING RESIDUAL FORCE      2.160E-12
 LARGEST INCREMENT OF DISP.         1.000E-05   AT NODE          1   DOF  2
   INSTANCE: CUBE_ASSEMBLY                                                                   
 LARGEST CORRECTION TO DISP.       -1.498E-19   AT NODE          1   DOF  1
   INSTANCE: CUBE_ASSEMBLY                                                                   
          THE FORCE     EQUILIBRIUM RESPONSE WAS LINEAR IN THIS INCREMENT

 ITERATION SUMMARY FOR THE INCREMENT:   1 TOTAL ITERATIONS, OF WHICH
   0 ARE SEVERE DISCONTINUITY ITERATIONS AND  1 ARE EQUILIBRIUM ITERATIONS.

 TIME INCREMENT COMPLETED   1.00    ,  FRACTION OF STEP COMPLETED  0.730    
 STEP TIME COMPLETED        73.0    ,  TOTAL TIME COMPLETED         73.0    


  INCREMENT    74 STARTS. ATTEMPT NUMBER  1, TIME INCREMENT   1.00    
 
	SYMMETRIC NEW DIRECT SPARSE SOLVER RUNNING ON
 	1 HOST x 1 MPI RANK PER HOST x 1 THREAD PER RANK
        NUMBER OF EQUATIONS:  24
        NUMBER OF RHS:        1
        NUMBER OF FLOPS:      4.900e+03
        SOLVER ELAPSED TIME:  0ms

               CONVERGENCE CHECKS FOR EQUILIBRIUM ITERATION     1


 AVERAGE FORCE                      3.885E+04   TIME AVG. FORCE       1.968E+04
 LARGEST SCALED RESIDUAL FORCE      1.364E-12   AT NODE          6   DOF  3
   INSTANCE: CUBE_ASSEMBLY                                                                   
  CORRESPONDING RESIDUAL FORCE      1.364E-12
 LARGEST INCREMENT OF DISP.         1.000E-05   AT NODE          1   DOF  2
   INSTANCE: CUBE_ASSEMBLY                                                                   
 LARGEST CORRECTION TO DISP.        1.630E-19   AT NODE          5   DOF  3
   INSTANCE: CUBE_ASSEMBLY                                                                   
          THE FORCE     EQUILIBRIUM RESPONSE WAS LINEAR IN THIS INCREMENT

 ITERATION SUMMARY FOR THE INCREMENT:   1 TOTAL ITERATIONS, OF WHICH
   0 ARE SEVERE DISCONTINUITY ITERATIONS AND  1 ARE EQUILIBRIUM ITERATIONS.

 TIME INCREMENT COMPLETED   1.00    ,  FRACTION OF STEP COMPLETED  0.740    
 STEP TIME COMPLETED        74.0    ,  TOTAL TIME COMPLETED         74.0    


  INCREMENT    75 STARTS. ATTEMPT NUMBER  1, TIME INCREMENT   1.00    
 
	SYMMETRIC NEW DIRECT SPARSE SOLVER RUNNING ON
 	1 HOST x 1 MPI RANK PER HOST x 1 THREAD PER RANK
        NUMBER OF EQUATIONS:  24
        NUMBER OF RHS:        1
        NUMBER OF FLOPS:      4.900e+03
        SOLVER ELAPSED TIME:  0ms

               CONVERGENCE CHECKS FOR EQUILIBRIUM ITERATION     1


 AVERAGE FORCE                      3.938E+04   TIME AVG. FORCE       1.994E+04
 LARGEST SCALED RESIDUAL FORCE     -1.137E-12   AT NODE          3   DOF  1
   INSTANCE: CUBE_ASSEMBLY                                                                   
  CORRESPONDING RESIDUAL FORCE     -1.137E-12
 LARGEST INCREMENT OF DISP.         1.000E-05   AT NODE          1   DOF  2
   INSTANCE: CUBE_ASSEMBLY                                                                   
 LARGEST CORRECTION TO DISP.       -2.036E-19   AT NODE          1   DOF  3
   INSTANCE: CUBE_ASSEMBLY                                                                   
          THE FORCE     EQUILIBRIUM RESPONSE WAS LINEAR IN THIS INCREMENT

 ITERATION SUMMARY FOR THE INCREMENT:   1 TOTAL ITERATIONS, OF WHICH
   0 ARE SEVERE DISCONTINUITY ITERATIONS AND  1 ARE EQUILIBRIUM ITERATIONS.

 TIME INCREMENT COMPLETED   1.00    ,  FRACTION OF STEP COMPLETED  0.750    
 STEP TIME COMPLETED        75.0    ,  TOTAL TIME COMPLETED         75.0    


  INCREMENT    76 STARTS. ATTEMPT NUMBER  1, TIME INCREMENT   1.00    
 
	SYMMETRIC NEW DIRECT SPARSE SOLVER RUNNING ON
 	1 HOST x 1 MPI RANK PER HOST x 1 THREAD PER RANK
        NUMBER OF EQUATIONS:  24
        NUMBER OF RHS:        1
        NUMBER OF FLOPS:      4.900e+03
        SOLVER ELAPSED TIME:  0ms

               CONVERGENCE CHECKS FOR EQUILIBRIUM ITERATION     1


 AVERAGE FORCE                      3.990E+04   TIME AVG. FORCE       2.021E+04
 LARGEST SCALED RESIDUAL FORCE      2.387E-12   AT NODE          1   DOF  1
   INSTANCE: CUBE_ASSEMBLY                                                                   
  CORRESPONDING RESIDUAL FORCE      2.387E-12
 LARGEST INCREMENT OF DISP.         1.000E-05   AT NODE          1   DOF  2
   INSTANCE: CUBE_ASSEMBLY                                                                   
 LARGEST CORRECTION TO DISP.        2.967E-19   AT NODE          1   DOF  3
   INSTANCE: CUBE_ASSEMBLY                                                                   
          THE FORCE     EQUILIBRIUM RESPONSE WAS LINEAR IN THIS INCREMENT

 ITERATION SUMMARY FOR THE INCREMENT:   1 TOTAL ITERATIONS, OF WHICH
   0 ARE SEVERE DISCONTINUITY ITERATIONS AND  1 ARE EQUILIBRIUM ITERATIONS.

 TIME INCREMENT COMPLETED   1.00    ,  FRACTION OF STEP COMPLETED  0.760    
 STEP TIME COMPLETED        76.0    ,  TOTAL TIME COMPLETED         76.0    


  INCREMENT    77 STARTS. ATTEMPT NUMBER  1, TIME INCREMENT   1.00    
 
	SYMMETRIC NEW DIRECT SPARSE SOLVER RUNNING ON
 	1 HOST x 1 MPI RANK PER HOST x 1 THREAD PER RANK
        NUMBER OF EQUATIONS:  24
        NUMBER OF RHS:        1
        NUMBER OF FLOPS:      4.900e+03
        SOLVER ELAPSED TIME:  0ms

               CONVERGENCE CHECKS FOR EQUILIBRIUM ITERATION     1


 AVERAGE FORCE                      4.043E+04   TIME AVG. FORCE       2.047E+04
 LARGEST SCALED RESIDUAL FORCE     -1.478E-12   AT NODE          5   DOF  3
   INSTANCE: CUBE_ASSEMBLY                                                                   
  CORRESPONDING RESIDUAL FORCE     -1.478E-12
 LARGEST INCREMENT OF DISP.         1.000E-05   AT NODE          1   DOF  2
   INSTANCE: CUBE_ASSEMBLY                                                                   
 LARGEST CORRECTION TO DISP.        2.023E-19   AT NODE          1   DOF  1
   INSTANCE: CUBE_ASSEMBLY                                                                   
          THE FORCE     EQUILIBRIUM RESPONSE WAS LINEAR IN THIS INCREMENT

 ITERATION SUMMARY FOR THE INCREMENT:   1 TOTAL ITERATIONS, OF WHICH
   0 ARE SEVERE DISCONTINUITY ITERATIONS AND  1 ARE EQUILIBRIUM ITERATIONS.

 TIME INCREMENT COMPLETED   1.00    ,  FRACTION OF STEP COMPLETED  0.770    
 STEP TIME COMPLETED        77.0    ,  TOTAL TIME COMPLETED         77.0    


  INCREMENT    78 STARTS. ATTEMPT NUMBER  1, TIME INCREMENT   1.00    
 
	SYMMETRIC NEW DIRECT SPARSE SOLVER RUNNING ON
 	1 HOST x 1 MPI RANK PER HOST x 1 THREAD PER RANK
        NUMBER OF EQUATIONS:  24
        NUMBER OF RHS:        1
        NUMBER OF FLOPS:      4.900e+03
        SOLVER ELAPSED TIME:  0ms

               CONVERGENCE CHECKS FOR EQUILIBRIUM ITERATION     1


 AVERAGE FORCE                      4.095E+04   TIME AVG. FORCE       2.073E+04
 LARGEST SCALED RESIDUAL FORCE      1.364E-12   AT NODE          2   DOF  1
   INSTANCE: CUBE_ASSEMBLY                                                                   
  CORRESPONDING RESIDUAL FORCE      1.364E-12
 LARGEST INCREMENT OF DISP.         1.000E-05   AT NODE          1   DOF  2
   INSTANCE: CUBE_ASSEMBLY                                                                   
 LARGEST CORRECTION TO DISP.        3.941E-20   AT NODE          4   DOF  1
   INSTANCE: CUBE_ASSEMBLY                                                                   
          THE FORCE     EQUILIBRIUM RESPONSE WAS LINEAR IN THIS INCREMENT

 ITERATION SUMMARY FOR THE INCREMENT:   1 TOTAL ITERATIONS, OF WHICH
   0 ARE SEVERE DISCONTINUITY ITERATIONS AND  1 ARE EQUILIBRIUM ITERATIONS.

 TIME INCREMENT COMPLETED   1.00    ,  FRACTION OF STEP COMPLETED  0.780    
 STEP TIME COMPLETED        78.0    ,  TOTAL TIME COMPLETED         78.0    


  INCREMENT    79 STARTS. ATTEMPT NUMBER  1, TIME INCREMENT   1.00    
 
	SYMMETRIC NEW DIRECT SPARSE SOLVER RUNNING ON
 	1 HOST x 1 MPI RANK PER HOST x 1 THREAD PER RANK
        NUMBER OF EQUATIONS:  24
        NUMBER OF RHS:        1
        NUMBER OF FLOPS:      4.900e+03
        SOLVER ELAPSED TIME:  0ms

               CONVERGENCE CHECKS FOR EQUILIBRIUM ITERATION     1


 AVERAGE FORCE                      4.148E+04   TIME AVG. FORCE       2.099E+04
 LARGEST SCALED RESIDUAL FORCE     -4.320E-12   AT NODE          3   DOF  1
   INSTANCE: CUBE_ASSEMBLY                                                                   
  CORRESPONDING RESIDUAL FORCE     -4.320E-12
 LARGEST INCREMENT OF DISP.         1.000E-05   AT NODE          1   DOF  2
   INSTANCE: CUBE_ASSEMBLY                                                                   
 LARGEST CORRECTION TO DISP.       -1.084E-19   AT NODE          1   DOF  2
   INSTANCE: CUBE_ASSEMBLY                                                                   
          THE FORCE     EQUILIBRIUM RESPONSE WAS LINEAR IN THIS INCREMENT

 ITERATION SUMMARY FOR THE INCREMENT:   1 TOTAL ITERATIONS, OF WHICH
   0 ARE SEVERE DISCONTINUITY ITERATIONS AND  1 ARE EQUILIBRIUM ITERATIONS.

 TIME INCREMENT COMPLETED   1.00    ,  FRACTION OF STEP COMPLETED  0.790    
 STEP TIME COMPLETED        79.0    ,  TOTAL TIME COMPLETED         79.0    


  INCREMENT    80 STARTS. ATTEMPT NUMBER  1, TIME INCREMENT   1.00    
 
	SYMMETRIC NEW DIRECT SPARSE SOLVER RUNNING ON
 	1 HOST x 1 MPI RANK PER HOST x 1 THREAD PER RANK
        NUMBER OF EQUATIONS:  24
        NUMBER OF RHS:        1
        NUMBER OF FLOPS:      4.900e+03
        SOLVER ELAPSED TIME:  1ms

               CONVERGENCE CHECKS FOR EQUILIBRIUM ITERATION     1


 AVERAGE FORCE                      4.200E+04   TIME AVG. FORCE       2.126E+04
 LARGEST SCALED RESIDUAL FORCE     -2.274E-12   AT NODE          6   DOF  3
   INSTANCE: CUBE_ASSEMBLY                                                                   
  CORRESPONDING RESIDUAL FORCE     -2.274E-12
 LARGEST INCREMENT OF DISP.         1.000E-05   AT NODE          1   DOF  2
   INSTANCE: CUBE_ASSEMBLY                                                                   
 LARGEST CORRECTION TO DISP.        1.492E-19   AT NODE          2   DOF  3
   INSTANCE: CUBE_ASSEMBLY                                                                   
          THE FORCE     EQUILIBRIUM RESPONSE WAS LINEAR IN THIS INCREMENT

 ITERATION SUMMARY FOR THE INCREMENT:   1 TOTAL ITERATIONS, OF WHICH
   0 ARE SEVERE DISCONTINUITY ITERATIONS AND  1 ARE EQUILIBRIUM ITERATIONS.

 TIME INCREMENT COMPLETED   1.00    ,  FRACTION OF STEP COMPLETED  0.800    
 STEP TIME COMPLETED        80.0    ,  TOTAL TIME COMPLETED         80.0    


  INCREMENT    81 STARTS. ATTEMPT NUMBER  1, TIME INCREMENT   1.00    
 
	SYMMETRIC NEW DIRECT SPARSE SOLVER RUNNING ON
 	1 HOST x 1 MPI RANK PER HOST x 1 THREAD PER RANK
        NUMBER OF EQUATIONS:  24
        NUMBER OF RHS:        1
        NUMBER OF FLOPS:      4.900e+03
        SOLVER ELAPSED TIME:  0ms

               CONVERGENCE CHECKS FOR EQUILIBRIUM ITERATION     1


 AVERAGE FORCE                      4.253E+04   TIME AVG. FORCE       2.152E+04
 LARGEST SCALED RESIDUAL FORCE      2.046E-12   AT NODE          5   DOF  3
   INSTANCE: CUBE_ASSEMBLY                                                                   
  CORRESPONDING RESIDUAL FORCE      2.046E-12
 LARGEST INCREMENT OF DISP.         1.000E-05   AT NODE          1   DOF  2
   INSTANCE: CUBE_ASSEMBLY                                                                   
 LARGEST CORRECTION TO DISP.       -1.641E-19   AT NODE          2   DOF  3
   INSTANCE: CUBE_ASSEMBLY                                                                   
          THE FORCE     EQUILIBRIUM RESPONSE WAS LINEAR IN THIS INCREMENT

 ITERATION SUMMARY FOR THE INCREMENT:   1 TOTAL ITERATIONS, OF WHICH
   0 ARE SEVERE DISCONTINUITY ITERATIONS AND  1 ARE EQUILIBRIUM ITERATIONS.

 TIME INCREMENT COMPLETED   1.00    ,  FRACTION OF STEP COMPLETED  0.810    
 STEP TIME COMPLETED        81.0    ,  TOTAL TIME COMPLETED         81.0    


  INCREMENT    82 STARTS. ATTEMPT NUMBER  1, TIME INCREMENT   1.00    
 
	SYMMETRIC NEW DIRECT SPARSE SOLVER RUNNING ON
 	1 HOST x 1 MPI RANK PER HOST x 1 THREAD PER RANK
        NUMBER OF EQUATIONS:  24
        NUMBER OF RHS:        1
        NUMBER OF FLOPS:      4.900e+03
        SOLVER ELAPSED TIME:  0ms

               CONVERGENCE CHECKS FOR EQUILIBRIUM ITERATION     1


 AVERAGE FORCE                      4.305E+04   TIME AVG. FORCE       2.178E+04
 LARGEST SCALED RESIDUAL FORCE     -2.615E-12   AT NODE          4   DOF  1
   INSTANCE: CUBE_ASSEMBLY                                                                   
  CORRESPONDING RESIDUAL FORCE     -2.615E-12
 LARGEST INCREMENT OF DISP.         1.000E-05   AT NODE          1   DOF  2
   INSTANCE: CUBE_ASSEMBLY                                                                   
 LARGEST CORRECTION TO DISP.        2.551E-19   AT NODE          1   DOF  3
   INSTANCE: CUBE_ASSEMBLY                                                                   
          THE FORCE     EQUILIBRIUM RESPONSE WAS LINEAR IN THIS INCREMENT

 ITERATION SUMMARY FOR THE INCREMENT:   1 TOTAL ITERATIONS, OF WHICH
   0 ARE SEVERE DISCONTINUITY ITERATIONS AND  1 ARE EQUILIBRIUM ITERATIONS.

 TIME INCREMENT COMPLETED   1.00    ,  FRACTION OF STEP COMPLETED  0.820    
 STEP TIME COMPLETED        82.0    ,  TOTAL TIME COMPLETED         82.0    

 ***ERROR: Process terminated by external request (SIGTERM or SIGINT received).



     ANALYSIS SUMMARY:
     TOTAL OF         82  INCREMENTS
                       0  CUTBACKS IN AUTOMATIC INCREMENTATION
                      82  ITERATIONS INCLUDING CONTACT ITERATIONS IF PRESENT
                      82  PASSES THROUGH THE EQUATION SOLVER OF WHICH 
                      82  INVOLVE MATRIX DECOMPOSITION, INCLUDING
                       0  DECOMPOSITION(S) OF THE MASS MATRIX
                       1  REORDERING OF EQUATIONS TO MINIMIZE WAVEFRONT
                       0  ADDITIONAL RESIDUAL EVALUATIONS FOR LINE SEARCHES
                       0  ADDITIONAL OPERATOR EVALUATIONS FOR LINE SEARCHES
                       3  WARNING MESSAGES DURING USER INPUT PROCESSING
                       0  WARNING MESSAGES DURING ANALYSIS
                       0  ANALYSIS WARNINGS ARE NUMERICAL PROBLEM MESSAGES
                       0  ANALYSIS WARNINGS ARE NEGATIVE EIGENVALUE MESSAGES
                       1  ERROR MESSAGES



     JOB TIME SUMMARY
       USER TIME (SEC)      =     0.70    
       SYSTEM TIME (SEC)    =     0.50    
       TOTAL CPU TIME (SEC) =      1.2    
       WALLCLOCK TIME (SEC) =            3
       MEMORY PEAK (GB)     =            0

---------- RUNTIME EXCEPTION HAS OCCURRED ----------
*** ERROR: standard.exe / rank 0 / thread 0  encountered a system exception 0xC0000005 (EXCEPTION_ACCESS_VIOLATION) 