1

   Abaqus 2023.HF4                                  Date 14-Oct-2024   Time 15:58:02
   For use by AALTO UNIVERSITY under license from Dassault Systemes or its subsidiary.

                                                                                 
                                                                                 
 STEP    1     INCREMENT     1     STEP TIME    0.00    


                        S T E P       1     C O U P L E D - T E M P E R A T U R E - D I S P L A C E M E N T   A N A L Y S I S


                                                                                          

          FIXED TIME INCREMENTS
          TIME INCREMENT IS                                     1.00    
          TIME PERIOD IS                                        100.    

          CREEP AND SWELLING EFFECTS ARE OMITTED IN THIS STEP
          THE RATE DEPENDENCY WILL BE CONSIDERED IN THIS STEP

          CREEP AND SWELLING EFFECTS WILL BE IGNORED.

 CONVERGENCE TOLERANCE PARAMETERS FOR FORCE    
     CRITERION FOR RESIDUAL FORCE     FOR A NONLINEAR PROBLEM          5.000E-03
     CRITERION FOR DISP.    CORRECTION IN A NONLINEAR PROBLEM          1.000E-02
     INITIAL VALUE OF TIME AVERAGE FORCE                               1.000E-02
     AVERAGE FORCE     IS TIME AVERAGE FORCE    
     ALTERNATE CRIT. FOR RESIDUAL FORCE     FOR A NONLINEAR PROBLEM    2.000E-02
     CRITERION FOR ZERO FORCE     RELATIVE TO TIME AVRG. FORCE         1.000E-05
     CRITERION FOR RESIDUAL FORCE     WHEN THERE IS ZERO FLUX          1.000E-05
     CRITERION FOR DISP.    CORRECTION WHEN THERE IS ZERO FLUX         1.000E-03
     CRITERION FOR RESIDUAL FORCE     FOR A LINEAR INCREMENT           1.000E-08
     FIELD CONVERSION RATIO                                             1.00    
     CRITERION FOR ZERO FORCE     REL. TO TIME AVRG. MAX. FORCE        1.000E-05
     CRITERION FOR ZERO DISP.    RELATIVE TO CHARACTERISTIC LENGTH     1.000E-08

 CONVERGENCE TOLERANCE PARAMETERS FOR HEAT FLUX
     CRITERION FOR RESIDUAL HEAT FLUX FOR A NONLINEAR PROBLEM          5.000E-03
     CRITERION FOR TEMP.    CORRECTION IN A NONLINEAR PROBLEM          1.000E-02
     INITIAL VALUE OF TIME AVERAGE HEAT FLUX                           1.000E-02
     AVERAGE HEAT FLUX IS TIME AVERAGE HEAT FLUX
     ALTERNATE CRIT. FOR RESIDUAL HEAT FLUX FOR A NONLINEAR PROBLEM    2.000E-02
     CRITERION FOR ZERO HEAT FLUX RELATIVE TO TIME AVRG. HEAT FLUX     1.000E-05
     CRITERION FOR RESIDUAL HEAT FLUX WHEN THERE IS ZERO FLUX          1.000E-05
     CRITERION FOR TEMP.    CORRECTION WHEN THERE IS ZERO FLUX         1.000E-03
     CRITERION FOR RESIDUAL HEAT FLUX FOR A LINEAR INCREMENT           1.000E-08
     FIELD CONVERSION RATIO                                             1.00    
     CRITERION FOR ZERO HEAT FLUX REL. TO TIME AVRG. MAX. HEAT FLUX    1.000E-05

     VOLUMETRIC STRAIN COMPATIBILITY TOLERANCE FOR HYBRID SOLIDS       1.000E-05
     AXIAL STRAIN COMPATIBILITY TOLERANCE FOR HYBRID BEAMS             1.000E-05
     TRANS. SHEAR STRAIN COMPATIBILITY TOLERANCE FOR HYBRID BEAMS      1.000E-05
     SOFT CONTACT CONSTRAINT COMPATIBILITY TOLERANCE FOR P>P0          5.000E-03
     SOFT CONTACT CONSTRAINT COMPATIBILITY TOLERANCE FOR P=0.0         0.100    
     CONTACT FORCE ERROR TOLERANCE FOR CONVERT SDI=YES                 1.00    
     DISPLACEMENT COMPATIBILITY TOLERANCE FOR DCOUP ELEMENTS           1.000E-05
     ROTATION COMPATIBILITY TOLERANCE FOR DCOUP ELEMENTS               1.000E-05

 EQUILIBRIUM WILL BE CHECKED FOR SEVERE DISCONTINUITY ITERATIONS

 ITERATION CONTROL PARAMETERS:
     FIRST EQUILIBRIUM ITERATION FOR CONSECUTIVE DIVERGENCE CHECK              4
     EQUILIBRIUM ITERATION AFTER WHICH ALTERNATE RESIDUAL IS USED              9
     MAXIMUM EQUILIBRIUM ITERATIONS ALLOWED                                   16
     MAXIMUM ITERATIONS FOR SEVERE DISCONTINUITIES                            12
     GLOBAL STABILIZATION CONTROL IS NOT USED

          PRINT OF INCREMENT NUMBER, TIME, ETC., EVERY    1  INCREMENTS

     THE MAXIMUM NUMBER OF INCREMENTS IN THIS STEP IS                   10000

          UNSYMMETRIC MATRIX STORAGE AND SOLUTION WILL BE USED

     LINEAR EXTRAPOLATION WILL BE USED

     CHARACTERISTIC ELEMENT LENGTH     1.000E-03

     DETAILS REGARDING ACTUAL SOLUTION WAVEFRONT REQUESTED

     DETAILED OUTPUT OF DIAGNOSTICS TO DATABASE REQUESTED

     PRINT OF INCREMENT NUMBER, TIME, ETC., TO THE MESSAGE FILE EVERY     1  INCREMENTS

     COLLECTING MODEL CONSTRAINT INFORMATION FOR OVERCONSTRAINT CHECKS

     COLLECTING STEP CONSTRAINT INFORMATION FOR OVERCONSTRAINT CHECKS


  INCREMENT     1 STARTS. ATTEMPT NUMBER  1, TIME INCREMENT   1.00    
 
	UNSYMMETRIC NEW DIRECT SPARSE SOLVER RUNNING ON
 	1 HOST x 1 MPI RANK PER HOST x 1 THREAD PER RANK
        NUMBER OF EQUATIONS:  32
        NUMBER OF RHS:        1
        NUMBER OF FLOPS:      2.189e+04
        SOLVER ELAPSED TIME:  5ms

               CONVERGENCE CHECKS FOR EQUILIBRIUM ITERATION     1


 AVERAGE FORCE                       175.       TIME AVG. FORCE        175.    
 LARGEST SCALED RESIDUAL FORCE      7.615E-14   AT NODE          2   DOF  3
   INSTANCE: CUBE_ASSEMBLY                                                                   
  CORRESPONDING RESIDUAL FORCE      7.615E-14
 LARGEST INCREMENT OF DISP.         1.000E-05   AT NODE          1   DOF  2
   INSTANCE: CUBE_ASSEMBLY                                                                   
 LARGEST CORRECTION TO DISP.        1.000E-05   AT NODE          1   DOF  2
   INSTANCE: CUBE_ASSEMBLY                                                                   
          THE FORCE     EQUILIBRIUM RESPONSE WAS LINEAR IN THIS INCREMENT

 AVERAGE HEAT FLUX                  1.220E-10   TIME AVG. HEAT FLUX   1.000E-02
 LARGEST RESIDUAL HEAT FLUX        -1.816E-24   AT NODE          4   DOF 11
   INSTANCE: CUBE_ASSEMBLY                                                                   
 LARGEST INCREMENT OF TEMP.          1.00       AT NODE          1   DOF 11
   INSTANCE: CUBE_ASSEMBLY                                                                   
 LARGEST CORRECTION TO TEMP.         1.00       AT NODE          1   DOF 11
   INSTANCE: CUBE_ASSEMBLY                                                                   
          THERE IS ZERO HEAT FLUX EVERYWHERE
 

 ***WARNING: THERE IS ZERO HEAT FLUX EVERYWHERE IN THE MODEL BASED ON THE 
             DEFAULT CRITERION. PLEASE CHECK THE VALUE OF THE AVERAGE HEAT FLUX 
             DURING THE CURRENT ITERATION TO VERIFY THAT THE HEAT FLUX IS SMALL 
             ENOUGH TO BE TREATED AS ZERO. IF NOT, PLEASE USE THE SOLUTION 
             CONTROLS TO RESET THE CRITERION FOR ZERO HEAT FLUX.

 ITERATION SUMMARY FOR THE INCREMENT:   1 TOTAL ITERATIONS, OF WHICH
   0 ARE SEVERE DISCONTINUITY ITERATIONS AND  1 ARE EQUILIBRIUM ITERATIONS.

 TIME INCREMENT COMPLETED   1.00    ,  FRACTION OF STEP COMPLETED  1.000E-02
 STEP TIME COMPLETED        1.00    ,  TOTAL TIME COMPLETED         1.00    


  INCREMENT     2 STARTS. ATTEMPT NUMBER  1, TIME INCREMENT   1.00    
 
	UNSYMMETRIC NEW DIRECT SPARSE SOLVER RUNNING ON
 	1 HOST x 1 MPI RANK PER HOST x 1 THREAD PER RANK
        NUMBER OF EQUATIONS:  32
        NUMBER OF RHS:        1
        NUMBER OF FLOPS:      2.189e+04
        SOLVER ELAPSED TIME:  0ms

               CONVERGENCE CHECKS FOR EQUILIBRIUM ITERATION     1


 AVERAGE FORCE                      1.050E+03   TIME AVG. FORCE        613.    
 LARGEST SCALED RESIDUAL FORCE      6.714E-14   AT NODE          1   DOF  3
   INSTANCE: CUBE_ASSEMBLY                                                                   
  CORRESPONDING RESIDUAL FORCE      6.714E-14
 LARGEST INCREMENT OF DISP.         1.000E-05   AT NODE          1   DOF  2
   INSTANCE: CUBE_ASSEMBLY                                                                   
 LARGEST CORRECTION TO DISP.        6.073E-21   AT NODE          2   DOF  3
   INSTANCE: CUBE_ASSEMBLY                                                                   
          THE FORCE     EQUILIBRIUM RESPONSE WAS LINEAR IN THIS INCREMENT

 AVERAGE HEAT FLUX                  2.834E-12   TIME AVG. HEAT FLUX   1.000E-02
 LARGEST RESIDUAL HEAT FLUX         1.662E-24   AT NODE          4   DOF 11
   INSTANCE: CUBE_ASSEMBLY                                                                   
 LARGEST INCREMENT OF TEMP.         4.535E-02   AT NODE          6   DOF 11
   INSTANCE: CUBE_ASSEMBLY                                                                   
 LARGEST CORRECTION TO TEMP.        -1.00       AT NODE          1   DOF 11
   INSTANCE: CUBE_ASSEMBLY                                                                   
          THERE IS ZERO HEAT FLUX EVERYWHERE
 

 ***WARNING: THERE IS ZERO HEAT FLUX EVERYWHERE IN THE MODEL BASED ON THE 
             DEFAULT CRITERION. PLEASE CHECK THE VALUE OF THE AVERAGE HEAT FLUX 
             DURING THE CURRENT ITERATION TO VERIFY THAT THE HEAT FLUX IS SMALL 
             ENOUGH TO BE TREATED AS ZERO. IF NOT, PLEASE USE THE SOLUTION 
             CONTROLS TO RESET THE CRITERION FOR ZERO HEAT FLUX.

 ITERATION SUMMARY FOR THE INCREMENT:   1 TOTAL ITERATIONS, OF WHICH
   0 ARE SEVERE DISCONTINUITY ITERATIONS AND  1 ARE EQUILIBRIUM ITERATIONS.

 TIME INCREMENT COMPLETED   1.00    ,  FRACTION OF STEP COMPLETED  2.000E-02
 STEP TIME COMPLETED        2.00    ,  TOTAL TIME COMPLETED         2.00    


  INCREMENT     3 STARTS. ATTEMPT NUMBER  1, TIME INCREMENT   1.00    
 
	UNSYMMETRIC NEW DIRECT SPARSE SOLVER RUNNING ON
 	1 HOST x 1 MPI RANK PER HOST x 1 THREAD PER RANK
        NUMBER OF EQUATIONS:  32
        NUMBER OF RHS:        1
        NUMBER OF FLOPS:      2.189e+04
        SOLVER ELAPSED TIME:  0ms

               CONVERGENCE CHECKS FOR EQUILIBRIUM ITERATION     1


 AVERAGE FORCE                      1.575E+03   TIME AVG. FORCE        933.    
 LARGEST SCALED RESIDUAL FORCE      8.013E-14   AT NODE          4   DOF  1
   INSTANCE: CUBE_ASSEMBLY                                                                   
  CORRESPONDING RESIDUAL FORCE      8.013E-14
 LARGEST INCREMENT OF DISP.         1.000E-05   AT NODE          1   DOF  2
   INSTANCE: CUBE_ASSEMBLY                                                                   
 LARGEST CORRECTION TO DISP.        4.866E-21   AT NODE          6   DOF  3
   INSTANCE: CUBE_ASSEMBLY                                                                   
          THE FORCE     EQUILIBRIUM RESPONSE WAS LINEAR IN THIS INCREMENT

 AVERAGE HEAT FLUX                  1.350E-13   TIME AVG. HEAT FLUX   1.000E-02
 LARGEST RESIDUAL HEAT FLUX        -4.354E-25   AT NODE          6   DOF 11
   INSTANCE: CUBE_ASSEMBLY                                                                   
 LARGEST INCREMENT OF TEMP.         2.160E-03   AT NODE          4   DOF 11
   INSTANCE: CUBE_ASSEMBLY                                                                   
 LARGEST CORRECTION TO TEMP.       -4.319E-02   AT NODE          6   DOF 11
   INSTANCE: CUBE_ASSEMBLY                                                                   
          THERE IS ZERO HEAT FLUX EVERYWHERE
 

 ***WARNING: THERE IS ZERO HEAT FLUX EVERYWHERE IN THE MODEL BASED ON THE 
             DEFAULT CRITERION. PLEASE CHECK THE VALUE OF THE AVERAGE HEAT FLUX 
             DURING THE CURRENT ITERATION TO VERIFY THAT THE HEAT FLUX IS SMALL 
             ENOUGH TO BE TREATED AS ZERO. IF NOT, PLEASE USE THE SOLUTION 
             CONTROLS TO RESET THE CRITERION FOR ZERO HEAT FLUX.

 ITERATION SUMMARY FOR THE INCREMENT:   1 TOTAL ITERATIONS, OF WHICH
   0 ARE SEVERE DISCONTINUITY ITERATIONS AND  1 ARE EQUILIBRIUM ITERATIONS.

 TIME INCREMENT COMPLETED   1.00    ,  FRACTION OF STEP COMPLETED  3.000E-02
 STEP TIME COMPLETED        3.00    ,  TOTAL TIME COMPLETED         3.00    


  INCREMENT     4 STARTS. ATTEMPT NUMBER  1, TIME INCREMENT   1.00    
 
	UNSYMMETRIC NEW DIRECT SPARSE SOLVER RUNNING ON
 	1 HOST x 1 MPI RANK PER HOST x 1 THREAD PER RANK
        NUMBER OF EQUATIONS:  32
        NUMBER OF RHS:        1
        NUMBER OF FLOPS:      2.189e+04
        SOLVER ELAPSED TIME:  0ms

               CONVERGENCE CHECKS FOR EQUILIBRIUM ITERATION     1


 AVERAGE FORCE                      2.100E+03   TIME AVG. FORCE       1.225E+03
 LARGEST SCALED RESIDUAL FORCE     -1.435E-13   AT NODE          5   DOF  3
   INSTANCE: CUBE_ASSEMBLY                                                                   
  CORRESPONDING RESIDUAL FORCE     -1.435E-13
 LARGEST INCREMENT OF DISP.         1.000E-05   AT NODE          1   DOF  2
   INSTANCE: CUBE_ASSEMBLY                                                                   
 LARGEST CORRECTION TO DISP.       -6.418E-21   AT NODE          6   DOF  3
   INSTANCE: CUBE_ASSEMBLY                                                                   
          THE FORCE     EQUILIBRIUM RESPONSE WAS LINEAR IN THIS INCREMENT

 AVERAGE HEAT FLUX                  6.427E-15   TIME AVG. HEAT FLUX   1.000E-02
 LARGEST RESIDUAL HEAT FLUX        -2.114E-25   AT NODE          6   DOF 11
   INSTANCE: CUBE_ASSEMBLY                                                                   
 LARGEST INCREMENT OF TEMP.         1.028E-04   AT NODE          2   DOF 11
   INSTANCE: CUBE_ASSEMBLY                                                                   
 LARGEST CORRECTION TO TEMP.       -2.057E-03   AT NODE          4   DOF 11
   INSTANCE: CUBE_ASSEMBLY                                                                   
          THERE IS ZERO HEAT FLUX EVERYWHERE
 

 ***WARNING: THERE IS ZERO HEAT FLUX EVERYWHERE IN THE MODEL BASED ON THE 
             DEFAULT CRITERION. PLEASE CHECK THE VALUE OF THE AVERAGE HEAT FLUX 
             DURING THE CURRENT ITERATION TO VERIFY THAT THE HEAT FLUX IS SMALL 
             ENOUGH TO BE TREATED AS ZERO. IF NOT, PLEASE USE THE SOLUTION 
             CONTROLS TO RESET THE CRITERION FOR ZERO HEAT FLUX.

 ITERATION SUMMARY FOR THE INCREMENT:   1 TOTAL ITERATIONS, OF WHICH
   0 ARE SEVERE DISCONTINUITY ITERATIONS AND  1 ARE EQUILIBRIUM ITERATIONS.

 TIME INCREMENT COMPLETED   1.00    ,  FRACTION OF STEP COMPLETED  4.000E-02
 STEP TIME COMPLETED        4.00    ,  TOTAL TIME COMPLETED         4.00    


  INCREMENT     5 STARTS. ATTEMPT NUMBER  1, TIME INCREMENT   1.00    
 
	UNSYMMETRIC NEW DIRECT SPARSE SOLVER RUNNING ON
 	1 HOST x 1 MPI RANK PER HOST x 1 THREAD PER RANK
        NUMBER OF EQUATIONS:  32
        NUMBER OF RHS:        1
        NUMBER OF FLOPS:      2.189e+04
        SOLVER ELAPSED TIME:  0ms

               CONVERGENCE CHECKS FOR EQUILIBRIUM ITERATION     1


 AVERAGE FORCE                      2.625E+03   TIME AVG. FORCE       1.505E+03
 LARGEST SCALED RESIDUAL FORCE      1.857E-13   AT NODE          2   DOF  1
   INSTANCE: CUBE_ASSEMBLY                                                                   
  CORRESPONDING RESIDUAL FORCE      1.857E-13
 LARGEST INCREMENT OF DISP.         1.000E-05   AT NODE          1   DOF  2
   INSTANCE: CUBE_ASSEMBLY                                                                   
 LARGEST CORRECTION TO DISP.       -5.444E-21   AT NODE          4   DOF  1
   INSTANCE: CUBE_ASSEMBLY                                                                   
          THE FORCE     EQUILIBRIUM RESPONSE WAS LINEAR IN THIS INCREMENT

 AVERAGE HEAT FLUX                  3.061E-16   TIME AVG. HEAT FLUX   1.000E-02
 LARGEST RESIDUAL HEAT FLUX        -4.094E-25   AT NODE          2   DOF 11
   INSTANCE: CUBE_ASSEMBLY                                                                   
 LARGEST INCREMENT OF TEMP.         4.897E-06   AT NODE          2   DOF 11
   INSTANCE: CUBE_ASSEMBLY                                                                   
 LARGEST CORRECTION TO TEMP.       -9.794E-05   AT NODE          8   DOF 11
   INSTANCE: CUBE_ASSEMBLY                                                                   
          THERE IS ZERO HEAT FLUX EVERYWHERE
 

 ***WARNING: THERE IS ZERO HEAT FLUX EVERYWHERE IN THE MODEL BASED ON THE 
             DEFAULT CRITERION. PLEASE CHECK THE VALUE OF THE AVERAGE HEAT FLUX 
             DURING THE CURRENT ITERATION TO VERIFY THAT THE HEAT FLUX IS SMALL 
             ENOUGH TO BE TREATED AS ZERO. IF NOT, PLEASE USE THE SOLUTION 
             CONTROLS TO RESET THE CRITERION FOR ZERO HEAT FLUX.

 ITERATION SUMMARY FOR THE INCREMENT:   1 TOTAL ITERATIONS, OF WHICH
   0 ARE SEVERE DISCONTINUITY ITERATIONS AND  1 ARE EQUILIBRIUM ITERATIONS.

 TIME INCREMENT COMPLETED   1.00    ,  FRACTION OF STEP COMPLETED  5.000E-02
 STEP TIME COMPLETED        5.00    ,  TOTAL TIME COMPLETED         5.00    


  INCREMENT     6 STARTS. ATTEMPT NUMBER  1, TIME INCREMENT   1.00    
 
	UNSYMMETRIC NEW DIRECT SPARSE SOLVER RUNNING ON
 	1 HOST x 1 MPI RANK PER HOST x 1 THREAD PER RANK
        NUMBER OF EQUATIONS:  32
        NUMBER OF RHS:        1
        NUMBER OF FLOPS:      2.189e+04
        SOLVER ELAPSED TIME:  0ms

               CONVERGENCE CHECKS FOR EQUILIBRIUM ITERATION     1


 AVERAGE FORCE                      3.150E+03   TIME AVG. FORCE       1.779E+03
 LARGEST SCALED RESIDUAL FORCE     -1.026E-13   AT NODE          6   DOF  3
   INSTANCE: CUBE_ASSEMBLY                                                                   
  CORRESPONDING RESIDUAL FORCE     -1.026E-13
 LARGEST INCREMENT OF DISP.         1.000E-05   AT NODE          1   DOF  2
   INSTANCE: CUBE_ASSEMBLY                                                                   
 LARGEST CORRECTION TO DISP.        7.223E-21   AT NODE          1   DOF  3
   INSTANCE: CUBE_ASSEMBLY                                                                   
          THE FORCE     EQUILIBRIUM RESPONSE WAS LINEAR IN THIS INCREMENT

 AVERAGE HEAT FLUX                  1.457E-17   TIME AVG. HEAT FLUX   1.000E-02
 LARGEST RESIDUAL HEAT FLUX        -4.644E-25   AT NODE          6   DOF 11
   INSTANCE: CUBE_ASSEMBLY                                                                   
 LARGEST INCREMENT OF TEMP.         2.332E-07   AT NODE          8   DOF 11
   INSTANCE: CUBE_ASSEMBLY                                                                   
 LARGEST CORRECTION TO TEMP.       -4.664E-06   AT NODE          2   DOF 11
   INSTANCE: CUBE_ASSEMBLY                                                                   
          THERE IS ZERO HEAT FLUX EVERYWHERE
 

 ***WARNING: THERE IS ZERO HEAT FLUX EVERYWHERE IN THE MODEL BASED ON THE 
             DEFAULT CRITERION. PLEASE CHECK THE VALUE OF THE AVERAGE HEAT FLUX 
             DURING THE CURRENT ITERATION TO VERIFY THAT THE HEAT FLUX IS SMALL 
             ENOUGH TO BE TREATED AS ZERO. IF NOT, PLEASE USE THE SOLUTION 
             CONTROLS TO RESET THE CRITERION FOR ZERO HEAT FLUX.

 ITERATION SUMMARY FOR THE INCREMENT:   1 TOTAL ITERATIONS, OF WHICH
   0 ARE SEVERE DISCONTINUITY ITERATIONS AND  1 ARE EQUILIBRIUM ITERATIONS.

 TIME INCREMENT COMPLETED   1.00    ,  FRACTION OF STEP COMPLETED  6.000E-02
 STEP TIME COMPLETED        6.00    ,  TOTAL TIME COMPLETED         6.00    


  INCREMENT     7 STARTS. ATTEMPT NUMBER  1, TIME INCREMENT   1.00    
 
	UNSYMMETRIC NEW DIRECT SPARSE SOLVER RUNNING ON
 	1 HOST x 1 MPI RANK PER HOST x 1 THREAD PER RANK
        NUMBER OF EQUATIONS:  32
        NUMBER OF RHS:        1
        NUMBER OF FLOPS:      2.189e+04
        SOLVER ELAPSED TIME:  0ms

               CONVERGENCE CHECKS FOR EQUILIBRIUM ITERATION     1


 AVERAGE FORCE                      3.675E+03   TIME AVG. FORCE       2.050E+03
 LARGEST SCALED RESIDUAL FORCE      1.621E-13   AT NODE          5   DOF  3
   INSTANCE: CUBE_ASSEMBLY                                                                   
  CORRESPONDING RESIDUAL FORCE      1.621E-13
 LARGEST INCREMENT OF DISP.         1.000E-05   AT NODE          1   DOF  2
   INSTANCE: CUBE_ASSEMBLY                                                                   
 LARGEST CORRECTION TO DISP.       -9.057E-21   AT NODE          5   DOF  3
   INSTANCE: CUBE_ASSEMBLY                                                                   
          THE FORCE     EQUILIBRIUM RESPONSE WAS LINEAR IN THIS INCREMENT

 AVERAGE HEAT FLUX                  6.940E-19   TIME AVG. HEAT FLUX   1.000E-02
 LARGEST RESIDUAL HEAT FLUX         3.879E-25   AT NODE          2   DOF 11
   INSTANCE: CUBE_ASSEMBLY                                                                   
 LARGEST INCREMENT OF TEMP.         1.110E-08   AT NODE          4   DOF 11
   INSTANCE: CUBE_ASSEMBLY                                                                   
 LARGEST CORRECTION TO TEMP.       -2.221E-07   AT NODE          6   DOF 11
   INSTANCE: CUBE_ASSEMBLY                                                                   
          THERE IS ZERO HEAT FLUX EVERYWHERE
 

 ***WARNING: THERE IS ZERO HEAT FLUX EVERYWHERE IN THE MODEL BASED ON THE 
             DEFAULT CRITERION. PLEASE CHECK THE VALUE OF THE AVERAGE HEAT FLUX 
             DURING THE CURRENT ITERATION TO VERIFY THAT THE HEAT FLUX IS SMALL 
             ENOUGH TO BE TREATED AS ZERO. IF NOT, PLEASE USE THE SOLUTION 
             CONTROLS TO RESET THE CRITERION FOR ZERO HEAT FLUX.

 ITERATION SUMMARY FOR THE INCREMENT:   1 TOTAL ITERATIONS, OF WHICH
   0 ARE SEVERE DISCONTINUITY ITERATIONS AND  1 ARE EQUILIBRIUM ITERATIONS.

 TIME INCREMENT COMPLETED   1.00    ,  FRACTION OF STEP COMPLETED  7.000E-02
 STEP TIME COMPLETED        7.00    ,  TOTAL TIME COMPLETED         7.00    


  INCREMENT     8 STARTS. ATTEMPT NUMBER  1, TIME INCREMENT   1.00    
 
	UNSYMMETRIC NEW DIRECT SPARSE SOLVER RUNNING ON
 	1 HOST x 1 MPI RANK PER HOST x 1 THREAD PER RANK
        NUMBER OF EQUATIONS:  32
        NUMBER OF RHS:        1
        NUMBER OF FLOPS:      2.189e+04
        SOLVER ELAPSED TIME:  0ms

               CONVERGENCE CHECKS FOR EQUILIBRIUM ITERATION     1


 AVERAGE FORCE                      4.200E+03   TIME AVG. FORCE       2.319E+03
 LARGEST SCALED RESIDUAL FORCE      2.600E-13   AT NODE          2   DOF  3
   INSTANCE: CUBE_ASSEMBLY                                                                   
  CORRESPONDING RESIDUAL FORCE      2.600E-13
 LARGEST INCREMENT OF DISP.         1.000E-05   AT NODE          1   DOF  2
   INSTANCE: CUBE_ASSEMBLY                                                                   
 LARGEST CORRECTION TO DISP.       -1.101E-20   AT NODE          4   DOF  1
   INSTANCE: CUBE_ASSEMBLY                                                                   
          THE FORCE     EQUILIBRIUM RESPONSE WAS LINEAR IN THIS INCREMENT

 AVERAGE HEAT FLUX                  3.305E-20   TIME AVG. HEAT FLUX   1.000E-02
 LARGEST RESIDUAL HEAT FLUX        -4.161E-25   AT NODE          6   DOF 11
   INSTANCE: CUBE_ASSEMBLY                                                                   
 LARGEST INCREMENT OF TEMP.         5.288E-10   AT NODE          6   DOF 11
   INSTANCE: CUBE_ASSEMBLY                                                                   
 LARGEST CORRECTION TO TEMP.       -1.058E-08   AT NODE          4   DOF 11
   INSTANCE: CUBE_ASSEMBLY                                                                   
          THERE IS ZERO HEAT FLUX EVERYWHERE
 

 ***WARNING: THERE IS ZERO HEAT FLUX EVERYWHERE IN THE MODEL BASED ON THE 
             DEFAULT CRITERION. PLEASE CHECK THE VALUE OF THE AVERAGE HEAT FLUX 
             DURING THE CURRENT ITERATION TO VERIFY THAT THE HEAT FLUX IS SMALL 
             ENOUGH TO BE TREATED AS ZERO. IF NOT, PLEASE USE THE SOLUTION 
             CONTROLS TO RESET THE CRITERION FOR ZERO HEAT FLUX.

 ITERATION SUMMARY FOR THE INCREMENT:   1 TOTAL ITERATIONS, OF WHICH
   0 ARE SEVERE DISCONTINUITY ITERATIONS AND  1 ARE EQUILIBRIUM ITERATIONS.

 TIME INCREMENT COMPLETED   1.00    ,  FRACTION OF STEP COMPLETED  8.000E-02
 STEP TIME COMPLETED        8.00    ,  TOTAL TIME COMPLETED         8.00    


  INCREMENT     9 STARTS. ATTEMPT NUMBER  1, TIME INCREMENT   1.00    
 
	UNSYMMETRIC NEW DIRECT SPARSE SOLVER RUNNING ON
 	1 HOST x 1 MPI RANK PER HOST x 1 THREAD PER RANK
        NUMBER OF EQUATIONS:  32
        NUMBER OF RHS:        1
        NUMBER OF FLOPS:      2.189e+04
        SOLVER ELAPSED TIME:  0ms

               CONVERGENCE CHECKS FOR EQUILIBRIUM ITERATION     1


 AVERAGE FORCE                      4.725E+03   TIME AVG. FORCE       2.586E+03
 LARGEST SCALED RESIDUAL FORCE      3.082E-13   AT NODE          6   DOF  3
   INSTANCE: CUBE_ASSEMBLY                                                                   
  CORRESPONDING RESIDUAL FORCE      3.082E-13
 LARGEST INCREMENT OF DISP.         1.000E-05   AT NODE          1   DOF  2
   INSTANCE: CUBE_ASSEMBLY                                                                   
 LARGEST CORRECTION TO DISP.        2.169E-20   AT NODE          1   DOF  1
   INSTANCE: CUBE_ASSEMBLY                                                                   
          THE FORCE     EQUILIBRIUM RESPONSE WAS LINEAR IN THIS INCREMENT

 AVERAGE HEAT FLUX                  1.574E-21   TIME AVG. HEAT FLUX   1.000E-02
 LARGEST RESIDUAL HEAT FLUX         3.672E-25   AT NODE          8   DOF 11
   INSTANCE: CUBE_ASSEMBLY                                                                   
 LARGEST INCREMENT OF TEMP.         2.518E-11   AT NODE          2   DOF 11
   INSTANCE: CUBE_ASSEMBLY                                                                   
 LARGEST CORRECTION TO TEMP.       -5.036E-10   AT NODE          6   DOF 11
   INSTANCE: CUBE_ASSEMBLY                                                                   
          THERE IS ZERO HEAT FLUX EVERYWHERE
 

 ***WARNING: THERE IS ZERO HEAT FLUX EVERYWHERE IN THE MODEL BASED ON THE 
             DEFAULT CRITERION. PLEASE CHECK THE VALUE OF THE AVERAGE HEAT FLUX 
             DURING THE CURRENT ITERATION TO VERIFY THAT THE HEAT FLUX IS SMALL 
             ENOUGH TO BE TREATED AS ZERO. IF NOT, PLEASE USE THE SOLUTION 
             CONTROLS TO RESET THE CRITERION FOR ZERO HEAT FLUX.

 ITERATION SUMMARY FOR THE INCREMENT:   1 TOTAL ITERATIONS, OF WHICH
   0 ARE SEVERE DISCONTINUITY ITERATIONS AND  1 ARE EQUILIBRIUM ITERATIONS.

 TIME INCREMENT COMPLETED   1.00    ,  FRACTION OF STEP COMPLETED  9.000E-02
 STEP TIME COMPLETED        9.00    ,  TOTAL TIME COMPLETED         9.00    


  INCREMENT    10 STARTS. ATTEMPT NUMBER  1, TIME INCREMENT   1.00    
 
	UNSYMMETRIC NEW DIRECT SPARSE SOLVER RUNNING ON
 	1 HOST x 1 MPI RANK PER HOST x 1 THREAD PER RANK
        NUMBER OF EQUATIONS:  32
        NUMBER OF RHS:        1
        NUMBER OF FLOPS:      2.189e+04
        SOLVER ELAPSED TIME:  0ms

               CONVERGENCE CHECKS FOR EQUILIBRIUM ITERATION     1


 AVERAGE FORCE                      5.250E+03   TIME AVG. FORCE       2.853E+03
 LARGEST SCALED RESIDUAL FORCE     -2.205E-13   AT NODE          5   DOF  3
   INSTANCE: CUBE_ASSEMBLY                                                                   
  CORRESPONDING RESIDUAL FORCE     -2.205E-13
 LARGEST INCREMENT OF DISP.         1.000E-05   AT NODE          1   DOF  2
   INSTANCE: CUBE_ASSEMBLY                                                                   
 LARGEST CORRECTION TO DISP.        2.711E-20   AT NODE          1   DOF  2
   INSTANCE: CUBE_ASSEMBLY                                                                   
          THE FORCE     EQUILIBRIUM RESPONSE WAS LINEAR IN THIS INCREMENT

 AVERAGE HEAT FLUX                  7.500E-23   TIME AVG. HEAT FLUX   1.000E-02
 LARGEST RESIDUAL HEAT FLUX        -5.386E-25   AT NODE          2   DOF 11
   INSTANCE: CUBE_ASSEMBLY                                                                   
 LARGEST INCREMENT OF TEMP.         1.199E-12   AT NODE          4   DOF 11
   INSTANCE: CUBE_ASSEMBLY                                                                   
 LARGEST CORRECTION TO TEMP.       -2.398E-11   AT NODE          2   DOF 11
   INSTANCE: CUBE_ASSEMBLY                                                                   
          THERE IS ZERO HEAT FLUX EVERYWHERE
 

 ***WARNING: THERE IS ZERO HEAT FLUX EVERYWHERE IN THE MODEL BASED ON THE 
             DEFAULT CRITERION. PLEASE CHECK THE VALUE OF THE AVERAGE HEAT FLUX 
             DURING THE CURRENT ITERATION TO VERIFY THAT THE HEAT FLUX IS SMALL 
             ENOUGH TO BE TREATED AS ZERO. IF NOT, PLEASE USE THE SOLUTION 
             CONTROLS TO RESET THE CRITERION FOR ZERO HEAT FLUX.

 ITERATION SUMMARY FOR THE INCREMENT:   1 TOTAL ITERATIONS, OF WHICH
   0 ARE SEVERE DISCONTINUITY ITERATIONS AND  1 ARE EQUILIBRIUM ITERATIONS.

 TIME INCREMENT COMPLETED   1.00    ,  FRACTION OF STEP COMPLETED  0.100    
 STEP TIME COMPLETED        10.0    ,  TOTAL TIME COMPLETED         10.0    


  INCREMENT    11 STARTS. ATTEMPT NUMBER  1, TIME INCREMENT   1.00    
 
	UNSYMMETRIC NEW DIRECT SPARSE SOLVER RUNNING ON
 	1 HOST x 1 MPI RANK PER HOST x 1 THREAD PER RANK
        NUMBER OF EQUATIONS:  32
        NUMBER OF RHS:        1
        NUMBER OF FLOPS:      2.189e+04
        SOLVER ELAPSED TIME:  0ms

               CONVERGENCE CHECKS FOR EQUILIBRIUM ITERATION     1


 AVERAGE FORCE                      5.775E+03   TIME AVG. FORCE       3.118E+03
 LARGEST SCALED RESIDUAL FORCE     -2.897E-13   AT NODE          5   DOF  3
   INSTANCE: CUBE_ASSEMBLY                                                                   
  CORRESPONDING RESIDUAL FORCE     -2.897E-13
 LARGEST INCREMENT OF DISP.         1.000E-05   AT NODE          1   DOF  2
   INSTANCE: CUBE_ASSEMBLY                                                                   
 LARGEST CORRECTION TO DISP.        1.497E-20   AT NODE          4   DOF  1
   INSTANCE: CUBE_ASSEMBLY                                                                   
          THE FORCE     EQUILIBRIUM RESPONSE WAS LINEAR IN THIS INCREMENT

 AVERAGE HEAT FLUX                  3.714E-24   TIME AVG. HEAT FLUX   1.000E-02
 LARGEST RESIDUAL HEAT FLUX         3.370E-25   AT NODE          8   DOF 11
   INSTANCE: CUBE_ASSEMBLY                                                                   
 LARGEST INCREMENT OF TEMP.         5.706E-14   AT NODE          8   DOF 11
   INSTANCE: CUBE_ASSEMBLY                                                                   
 LARGEST CORRECTION TO TEMP.       -1.142E-12   AT NODE          2   DOF 11
   INSTANCE: CUBE_ASSEMBLY                                                                   
          THERE IS ZERO HEAT FLUX EVERYWHERE
 

 ***WARNING: THERE IS ZERO HEAT FLUX EVERYWHERE IN THE MODEL BASED ON THE 
             DEFAULT CRITERION. PLEASE CHECK THE VALUE OF THE AVERAGE HEAT FLUX 
             DURING THE CURRENT ITERATION TO VERIFY THAT THE HEAT FLUX IS SMALL 
             ENOUGH TO BE TREATED AS ZERO. IF NOT, PLEASE USE THE SOLUTION 
             CONTROLS TO RESET THE CRITERION FOR ZERO HEAT FLUX.

 ITERATION SUMMARY FOR THE INCREMENT:   1 TOTAL ITERATIONS, OF WHICH
   0 ARE SEVERE DISCONTINUITY ITERATIONS AND  1 ARE EQUILIBRIUM ITERATIONS.

 TIME INCREMENT COMPLETED   1.00    ,  FRACTION OF STEP COMPLETED  0.110    
 STEP TIME COMPLETED        11.0    ,  TOTAL TIME COMPLETED         11.0    


  INCREMENT    12 STARTS. ATTEMPT NUMBER  1, TIME INCREMENT   1.00    
 
	UNSYMMETRIC NEW DIRECT SPARSE SOLVER RUNNING ON
 	1 HOST x 1 MPI RANK PER HOST x 1 THREAD PER RANK
        NUMBER OF EQUATIONS:  32
        NUMBER OF RHS:        1
        NUMBER OF FLOPS:      2.189e+04
        SOLVER ELAPSED TIME:  0ms

               CONVERGENCE CHECKS FOR EQUILIBRIUM ITERATION     1


 AVERAGE FORCE                      6.300E+03   TIME AVG. FORCE       3.383E+03
 LARGEST SCALED RESIDUAL FORCE     -2.725E-13   AT NODE          5   DOF  3
   INSTANCE: CUBE_ASSEMBLY                                                                   
  CORRESPONDING RESIDUAL FORCE     -2.725E-13
 LARGEST INCREMENT OF DISP.         1.000E-05   AT NODE          1   DOF  2
   INSTANCE: CUBE_ASSEMBLY                                                                   
 LARGEST CORRECTION TO DISP.       -1.692E-20   AT NODE          2   DOF  3
   INSTANCE: CUBE_ASSEMBLY                                                                   
          THE FORCE     EQUILIBRIUM RESPONSE WAS LINEAR IN THIS INCREMENT

 AVERAGE HEAT FLUX                  2.080E-25   TIME AVG. HEAT FLUX   1.000E-02
 LARGEST RESIDUAL HEAT FLUX        -2.855E-25   AT NODE          8   DOF 11
   INSTANCE: CUBE_ASSEMBLY                                                                   
 LARGEST INCREMENT OF TEMP.         2.884E-15   AT NODE          8   DOF 11
   INSTANCE: CUBE_ASSEMBLY                                                                   
 LARGEST CORRECTION TO TEMP.       -5.435E-14   AT NODE          6   DOF 11
   INSTANCE: CUBE_ASSEMBLY                                                                   
          THERE IS ZERO HEAT FLUX EVERYWHERE
 

 ***WARNING: THERE IS ZERO HEAT FLUX EVERYWHERE IN THE MODEL BASED ON THE 
             DEFAULT CRITERION. PLEASE CHECK THE VALUE OF THE AVERAGE HEAT FLUX 
             DURING THE CURRENT ITERATION TO VERIFY THAT THE HEAT FLUX IS SMALL 
             ENOUGH TO BE TREATED AS ZERO. IF NOT, PLEASE USE THE SOLUTION 
             CONTROLS TO RESET THE CRITERION FOR ZERO HEAT FLUX.

 ITERATION SUMMARY FOR THE INCREMENT:   1 TOTAL ITERATIONS, OF WHICH
   0 ARE SEVERE DISCONTINUITY ITERATIONS AND  1 ARE EQUILIBRIUM ITERATIONS.

 TIME INCREMENT COMPLETED   1.00    ,  FRACTION OF STEP COMPLETED  0.120    
 STEP TIME COMPLETED        12.0    ,  TOTAL TIME COMPLETED         12.0    


  INCREMENT    13 STARTS. ATTEMPT NUMBER  1, TIME INCREMENT   1.00    
 
	UNSYMMETRIC NEW DIRECT SPARSE SOLVER RUNNING ON
 	1 HOST x 1 MPI RANK PER HOST x 1 THREAD PER RANK
        NUMBER OF EQUATIONS:  32
        NUMBER OF RHS:        1
        NUMBER OF FLOPS:      2.189e+04
        SOLVER ELAPSED TIME:  0ms

               CONVERGENCE CHECKS FOR EQUILIBRIUM ITERATION     1


 AVERAGE FORCE                      6.825E+03   TIME AVG. FORCE       3.648E+03
 LARGEST SCALED RESIDUAL FORCE     -6.281E-13   AT NODE          4   DOF  1
   INSTANCE: CUBE_ASSEMBLY                                                                   
  CORRESPONDING RESIDUAL FORCE     -6.281E-13
 LARGEST INCREMENT OF DISP.         1.000E-05   AT NODE          1   DOF  2
   INSTANCE: CUBE_ASSEMBLY                                                                   
 LARGEST CORRECTION TO DISP.       -1.625E-20   AT NODE          3   DOF  1
   INSTANCE: CUBE_ASSEMBLY                                                                   
          THE FORCE     EQUILIBRIUM RESPONSE WAS LINEAR IN THIS INCREMENT

 AVERAGE HEAT FLUX                  2.670E-25   TIME AVG. HEAT FLUX   1.000E-02
 LARGEST RESIDUAL HEAT FLUX         6.038E-25   AT NODE          4   DOF 11
   INSTANCE: CUBE_ASSEMBLY                                                                   
 LARGEST INCREMENT OF TEMP.         2.508E-16   AT NODE          2   DOF 11
   INSTANCE: CUBE_ASSEMBLY                                                                   
 LARGEST CORRECTION TO TEMP.       -2.850E-15   AT NODE          4   DOF 11
   INSTANCE: CUBE_ASSEMBLY                                                                   
          THERE IS ZERO HEAT FLUX EVERYWHERE
 

 ***WARNING: THERE IS ZERO HEAT FLUX EVERYWHERE IN THE MODEL BASED ON THE 
             DEFAULT CRITERION. PLEASE CHECK THE VALUE OF THE AVERAGE HEAT FLUX 
             DURING THE CURRENT ITERATION TO VERIFY THAT THE HEAT FLUX IS SMALL 
             ENOUGH TO BE TREATED AS ZERO. IF NOT, PLEASE USE THE SOLUTION 
             CONTROLS TO RESET THE CRITERION FOR ZERO HEAT FLUX.

 ITERATION SUMMARY FOR THE INCREMENT:   1 TOTAL ITERATIONS, OF WHICH
   0 ARE SEVERE DISCONTINUITY ITERATIONS AND  1 ARE EQUILIBRIUM ITERATIONS.

 TIME INCREMENT COMPLETED   1.00    ,  FRACTION OF STEP COMPLETED  0.130    
 STEP TIME COMPLETED        13.0    ,  TOTAL TIME COMPLETED         13.0    


  INCREMENT    14 STARTS. ATTEMPT NUMBER  1, TIME INCREMENT   1.00    
 
	UNSYMMETRIC NEW DIRECT SPARSE SOLVER RUNNING ON
 	1 HOST x 1 MPI RANK PER HOST x 1 THREAD PER RANK
        NUMBER OF EQUATIONS:  32
        NUMBER OF RHS:        1
        NUMBER OF FLOPS:      2.189e+04
        SOLVER ELAPSED TIME:  0ms

               CONVERGENCE CHECKS FOR EQUILIBRIUM ITERATION     1


 AVERAGE FORCE                      7.350E+03   TIME AVG. FORCE       3.913E+03
 LARGEST SCALED RESIDUAL FORCE      3.365E-13   AT NODE          5   DOF  3
   INSTANCE: CUBE_ASSEMBLY                                                                   
  CORRESPONDING RESIDUAL FORCE      3.365E-13
 LARGEST INCREMENT OF DISP.         1.000E-05   AT NODE          1   DOF  2
   INSTANCE: CUBE_ASSEMBLY                                                                   
 LARGEST CORRECTION TO DISP.        2.346E-20   AT NODE          1   DOF  3
   INSTANCE: CUBE_ASSEMBLY                                                                   
          THE FORCE     EQUILIBRIUM RESPONSE WAS LINEAR IN THIS INCREMENT

 AVERAGE HEAT FLUX                  2.019E-25   TIME AVG. HEAT FLUX   1.000E-02
 LARGEST RESIDUAL HEAT FLUX        -2.978E-25   AT NODE          2   DOF 11
   INSTANCE: CUBE_ASSEMBLY                                                                   
 LARGEST INCREMENT OF TEMP.         2.038E-16   AT NODE          4   DOF 11
   INSTANCE: CUBE_ASSEMBLY                                                                   
 LARGEST CORRECTION TO TEMP.       -3.019E-16   AT NODE          8   DOF 11
   INSTANCE: CUBE_ASSEMBLY                                                                   
          THERE IS ZERO HEAT FLUX EVERYWHERE
 

 ***WARNING: THERE IS ZERO HEAT FLUX EVERYWHERE IN THE MODEL BASED ON THE 
             DEFAULT CRITERION. PLEASE CHECK THE VALUE OF THE AVERAGE HEAT FLUX 
             DURING THE CURRENT ITERATION TO VERIFY THAT THE HEAT FLUX IS SMALL 
             ENOUGH TO BE TREATED AS ZERO. IF NOT, PLEASE USE THE SOLUTION 
             CONTROLS TO RESET THE CRITERION FOR ZERO HEAT FLUX.

 ITERATION SUMMARY FOR THE INCREMENT:   1 TOTAL ITERATIONS, OF WHICH
   0 ARE SEVERE DISCONTINUITY ITERATIONS AND  1 ARE EQUILIBRIUM ITERATIONS.

 TIME INCREMENT COMPLETED   1.00    ,  FRACTION OF STEP COMPLETED  0.140    
 STEP TIME COMPLETED        14.0    ,  TOTAL TIME COMPLETED         14.0    


  INCREMENT    15 STARTS. ATTEMPT NUMBER  1, TIME INCREMENT   1.00    
 
	UNSYMMETRIC NEW DIRECT SPARSE SOLVER RUNNING ON
 	1 HOST x 1 MPI RANK PER HOST x 1 THREAD PER RANK
        NUMBER OF EQUATIONS:  32
        NUMBER OF RHS:        1
        NUMBER OF FLOPS:      2.189e+04
        SOLVER ELAPSED TIME:  0ms

               CONVERGENCE CHECKS FOR EQUILIBRIUM ITERATION     1


 AVERAGE FORCE                      7.875E+03   TIME AVG. FORCE       4.177E+03
 LARGEST SCALED RESIDUAL FORCE     -8.443E-13   AT NODE          5   DOF  3
   INSTANCE: CUBE_ASSEMBLY                                                                   
  CORRESPONDING RESIDUAL FORCE     -8.443E-13
 LARGEST INCREMENT OF DISP.         1.000E-05   AT NODE          1   DOF  2
   INSTANCE: CUBE_ASSEMBLY                                                                   
 LARGEST CORRECTION TO DISP.        3.459E-20   AT NODE          5   DOF  3
   INSTANCE: CUBE_ASSEMBLY                                                                   
          THE FORCE     EQUILIBRIUM RESPONSE WAS LINEAR IN THIS INCREMENT

 AVERAGE HEAT FLUX                  2.006E-25   TIME AVG. HEAT FLUX   1.000E-02
 LARGEST RESIDUAL HEAT FLUX        -2.945E-25   AT NODE          2   DOF 11
   INSTANCE: CUBE_ASSEMBLY                                                                   
 LARGEST INCREMENT OF TEMP.         1.017E-16   AT NODE          6   DOF 11
   INSTANCE: CUBE_ASSEMBLY                                                                   
 LARGEST CORRECTION TO TEMP.        1.648E-16   AT NODE          8   DOF 11
   INSTANCE: CUBE_ASSEMBLY                                                                   
          THERE IS ZERO HEAT FLUX EVERYWHERE
 

 ***WARNING: THERE IS ZERO HEAT FLUX EVERYWHERE IN THE MODEL BASED ON THE 
             DEFAULT CRITERION. PLEASE CHECK THE VALUE OF THE AVERAGE HEAT FLUX 
             DURING THE CURRENT ITERATION TO VERIFY THAT THE HEAT FLUX IS SMALL 
             ENOUGH TO BE TREATED AS ZERO. IF NOT, PLEASE USE THE SOLUTION 
             CONTROLS TO RESET THE CRITERION FOR ZERO HEAT FLUX.

 ITERATION SUMMARY FOR THE INCREMENT:   1 TOTAL ITERATIONS, OF WHICH
   0 ARE SEVERE DISCONTINUITY ITERATIONS AND  1 ARE EQUILIBRIUM ITERATIONS.

 TIME INCREMENT COMPLETED   1.00    ,  FRACTION OF STEP COMPLETED  0.150    
 STEP TIME COMPLETED        15.0    ,  TOTAL TIME COMPLETED         15.0    


  INCREMENT    16 STARTS. ATTEMPT NUMBER  1, TIME INCREMENT   1.00    
 
	UNSYMMETRIC NEW DIRECT SPARSE SOLVER RUNNING ON
 	1 HOST x 1 MPI RANK PER HOST x 1 THREAD PER RANK
        NUMBER OF EQUATIONS:  32
        NUMBER OF RHS:        1
        NUMBER OF FLOPS:      2.189e+04
        SOLVER ELAPSED TIME:  0ms

               CONVERGENCE CHECKS FOR EQUILIBRIUM ITERATION     1


 AVERAGE FORCE                      8.400E+03   TIME AVG. FORCE       4.441E+03
 LARGEST SCALED RESIDUAL FORCE     -6.725E-13   AT NODE          6   DOF  3
   INSTANCE: CUBE_ASSEMBLY                                                                   
  CORRESPONDING RESIDUAL FORCE     -6.725E-13
 LARGEST INCREMENT OF DISP.         1.000E-05   AT NODE          1   DOF  2
   INSTANCE: CUBE_ASSEMBLY                                                                   
 LARGEST CORRECTION TO DISP.        5.421E-20   AT NODE          1   DOF  2
   INSTANCE: CUBE_ASSEMBLY                                                                   
          THE FORCE     EQUILIBRIUM RESPONSE WAS LINEAR IN THIS INCREMENT

 AVERAGE HEAT FLUX                  2.559E-25   TIME AVG. HEAT FLUX   1.000E-02
 LARGEST RESIDUAL HEAT FLUX        -6.444E-25   AT NODE          6   DOF 11
   INSTANCE: CUBE_ASSEMBLY                                                                   
 LARGEST INCREMENT OF TEMP.         1.466E-16   AT NODE          4   DOF 11
   INSTANCE: CUBE_ASSEMBLY                                                                   
 LARGEST CORRECTION TO TEMP.        9.154E-17   AT NODE          4   DOF 11
   INSTANCE: CUBE_ASSEMBLY                                                                   
          THERE IS ZERO HEAT FLUX EVERYWHERE
 

 ***WARNING: THERE IS ZERO HEAT FLUX EVERYWHERE IN THE MODEL BASED ON THE 
             DEFAULT CRITERION. PLEASE CHECK THE VALUE OF THE AVERAGE HEAT FLUX 
             DURING THE CURRENT ITERATION TO VERIFY THAT THE HEAT FLUX IS SMALL 
             ENOUGH TO BE TREATED AS ZERO. IF NOT, PLEASE USE THE SOLUTION 
             CONTROLS TO RESET THE CRITERION FOR ZERO HEAT FLUX.

 ITERATION SUMMARY FOR THE INCREMENT:   1 TOTAL ITERATIONS, OF WHICH
   0 ARE SEVERE DISCONTINUITY ITERATIONS AND  1 ARE EQUILIBRIUM ITERATIONS.

 TIME INCREMENT COMPLETED   1.00    ,  FRACTION OF STEP COMPLETED  0.160    
 STEP TIME COMPLETED        16.0    ,  TOTAL TIME COMPLETED         16.0    


  INCREMENT    17 STARTS. ATTEMPT NUMBER  1, TIME INCREMENT   1.00    
 
	UNSYMMETRIC NEW DIRECT SPARSE SOLVER RUNNING ON
 	1 HOST x 1 MPI RANK PER HOST x 1 THREAD PER RANK
        NUMBER OF EQUATIONS:  32
        NUMBER OF RHS:        1
        NUMBER OF FLOPS:      2.189e+04
        SOLVER ELAPSED TIME:  0ms

               CONVERGENCE CHECKS FOR EQUILIBRIUM ITERATION     1


 AVERAGE FORCE                      8.925E+03   TIME AVG. FORCE       4.704E+03
 LARGEST SCALED RESIDUAL FORCE      3.570E-13   AT NODE          2   DOF  3
   INSTANCE: CUBE_ASSEMBLY                                                                   
  CORRESPONDING RESIDUAL FORCE      3.570E-13
 LARGEST INCREMENT OF DISP.         1.000E-05   AT NODE          1   DOF  2
   INSTANCE: CUBE_ASSEMBLY                                                                   
 LARGEST CORRECTION TO DISP.       -2.711E-20   AT NODE          1   DOF  2
   INSTANCE: CUBE_ASSEMBLY                                                                   
          THE FORCE     EQUILIBRIUM RESPONSE WAS LINEAR IN THIS INCREMENT

 AVERAGE HEAT FLUX                  2.103E-25   TIME AVG. HEAT FLUX   1.000E-02
 LARGEST RESIDUAL HEAT FLUX         3.374E-25   AT NODE          4   DOF 11
   INSTANCE: CUBE_ASSEMBLY                                                                   
 LARGEST INCREMENT OF TEMP.        -2.617E-16   AT NODE          6   DOF 11
   INSTANCE: CUBE_ASSEMBLY                                                                   
 LARGEST CORRECTION TO TEMP.       -4.017E-16   AT NODE          6   DOF 11
   INSTANCE: CUBE_ASSEMBLY                                                                   
          THERE IS ZERO HEAT FLUX EVERYWHERE
 

 ***WARNING: THERE IS ZERO HEAT FLUX EVERYWHERE IN THE MODEL BASED ON THE 
             DEFAULT CRITERION. PLEASE CHECK THE VALUE OF THE AVERAGE HEAT FLUX 
             DURING THE CURRENT ITERATION TO VERIFY THAT THE HEAT FLUX IS SMALL 
             ENOUGH TO BE TREATED AS ZERO. IF NOT, PLEASE USE THE SOLUTION 
             CONTROLS TO RESET THE CRITERION FOR ZERO HEAT FLUX.

 ITERATION SUMMARY FOR THE INCREMENT:   1 TOTAL ITERATIONS, OF WHICH
   0 ARE SEVERE DISCONTINUITY ITERATIONS AND  1 ARE EQUILIBRIUM ITERATIONS.

 TIME INCREMENT COMPLETED   1.00    ,  FRACTION OF STEP COMPLETED  0.170    
 STEP TIME COMPLETED        17.0    ,  TOTAL TIME COMPLETED         17.0    


  INCREMENT    18 STARTS. ATTEMPT NUMBER  1, TIME INCREMENT   1.00    
 
	UNSYMMETRIC NEW DIRECT SPARSE SOLVER RUNNING ON
 	1 HOST x 1 MPI RANK PER HOST x 1 THREAD PER RANK
        NUMBER OF EQUATIONS:  32
        NUMBER OF RHS:        1
        NUMBER OF FLOPS:      2.189e+04
        SOLVER ELAPSED TIME:  0ms

               CONVERGENCE CHECKS FOR EQUILIBRIUM ITERATION     1


 AVERAGE FORCE                      9.450E+03   TIME AVG. FORCE       4.968E+03
 LARGEST SCALED RESIDUAL FORCE      4.594E-13   AT NODE          2   DOF  3
   INSTANCE: CUBE_ASSEMBLY                                                                   
  CORRESPONDING RESIDUAL FORCE      4.594E-13
 LARGEST INCREMENT OF DISP.         1.000E-05   AT NODE          1   DOF  2
   INSTANCE: CUBE_ASSEMBLY                                                                   
 LARGEST CORRECTION TO DISP.       -2.711E-20   AT NODE          1   DOF  2
   INSTANCE: CUBE_ASSEMBLY                                                                   
          THE FORCE     EQUILIBRIUM RESPONSE WAS LINEAR IN THIS INCREMENT

 AVERAGE HEAT FLUX                  2.070E-25   TIME AVG. HEAT FLUX   1.000E-02
 LARGEST RESIDUAL HEAT FLUX        -3.026E-25   AT NODE          2   DOF 11
   INSTANCE: CUBE_ASSEMBLY                                                                   
 LARGEST INCREMENT OF TEMP.        -1.451E-16   AT NODE          8   DOF 11
   INSTANCE: CUBE_ASSEMBLY                                                                   
 LARGEST CORRECTION TO TEMP.       -2.682E-16   AT NODE          8   DOF 11
   INSTANCE: CUBE_ASSEMBLY                                                                   
          THERE IS ZERO HEAT FLUX EVERYWHERE
 

 ***WARNING: THERE IS ZERO HEAT FLUX EVERYWHERE IN THE MODEL BASED ON THE 
             DEFAULT CRITERION. PLEASE CHECK THE VALUE OF THE AVERAGE HEAT FLUX 
             DURING THE CURRENT ITERATION TO VERIFY THAT THE HEAT FLUX IS SMALL 
             ENOUGH TO BE TREATED AS ZERO. IF NOT, PLEASE USE THE SOLUTION 
             CONTROLS TO RESET THE CRITERION FOR ZERO HEAT FLUX.

 ITERATION SUMMARY FOR THE INCREMENT:   1 TOTAL ITERATIONS, OF WHICH
   0 ARE SEVERE DISCONTINUITY ITERATIONS AND  1 ARE EQUILIBRIUM ITERATIONS.

 TIME INCREMENT COMPLETED   1.00    ,  FRACTION OF STEP COMPLETED  0.180    
 STEP TIME COMPLETED        18.0    ,  TOTAL TIME COMPLETED         18.0    


  INCREMENT    19 STARTS. ATTEMPT NUMBER  1, TIME INCREMENT   1.00    
 
	UNSYMMETRIC NEW DIRECT SPARSE SOLVER RUNNING ON
 	1 HOST x 1 MPI RANK PER HOST x 1 THREAD PER RANK
        NUMBER OF EQUATIONS:  32
        NUMBER OF RHS:        1
        NUMBER OF FLOPS:      2.189e+04
        SOLVER ELAPSED TIME:  0ms

               CONVERGENCE CHECKS FOR EQUILIBRIUM ITERATION     1


 AVERAGE FORCE                      9.975E+03   TIME AVG. FORCE       5.232E+03
 LARGEST SCALED RESIDUAL FORCE      6.924E-13   AT NODE          2   DOF  3
   INSTANCE: CUBE_ASSEMBLY                                                                   
  CORRESPONDING RESIDUAL FORCE      6.924E-13
 LARGEST INCREMENT OF DISP.         1.000E-05   AT NODE          1   DOF  2
   INSTANCE: CUBE_ASSEMBLY                                                                   
 LARGEST CORRECTION TO DISP.        5.421E-20   AT NODE          1   DOF  2
   INSTANCE: CUBE_ASSEMBLY                                                                   
          THE FORCE     EQUILIBRIUM RESPONSE WAS LINEAR IN THIS INCREMENT

 AVERAGE HEAT FLUX                  1.490E-25   TIME AVG. HEAT FLUX   1.000E-02
 LARGEST RESIDUAL HEAT FLUX         2.822E-25   AT NODE          4   DOF 11
   INSTANCE: CUBE_ASSEMBLY                                                                   
 LARGEST INCREMENT OF TEMP.         1.002E-16   AT NODE          4   DOF 11
   INSTANCE: CUBE_ASSEMBLY                                                                   
 LARGEST CORRECTION TO TEMP.        1.574E-16   AT NODE          8   DOF 11
   INSTANCE: CUBE_ASSEMBLY                                                                   
          THERE IS ZERO HEAT FLUX EVERYWHERE
 

 ***WARNING: THERE IS ZERO HEAT FLUX EVERYWHERE IN THE MODEL BASED ON THE 
             DEFAULT CRITERION. PLEASE CHECK THE VALUE OF THE AVERAGE HEAT FLUX 
             DURING THE CURRENT ITERATION TO VERIFY THAT THE HEAT FLUX IS SMALL 
             ENOUGH TO BE TREATED AS ZERO. IF NOT, PLEASE USE THE SOLUTION 
             CONTROLS TO RESET THE CRITERION FOR ZERO HEAT FLUX.

 ITERATION SUMMARY FOR THE INCREMENT:   1 TOTAL ITERATIONS, OF WHICH
   0 ARE SEVERE DISCONTINUITY ITERATIONS AND  1 ARE EQUILIBRIUM ITERATIONS.

 TIME INCREMENT COMPLETED   1.00    ,  FRACTION OF STEP COMPLETED  0.190    
 STEP TIME COMPLETED        19.0    ,  TOTAL TIME COMPLETED         19.0    


  INCREMENT    20 STARTS. ATTEMPT NUMBER  1, TIME INCREMENT   1.00    
 
	UNSYMMETRIC NEW DIRECT SPARSE SOLVER RUNNING ON
 	1 HOST x 1 MPI RANK PER HOST x 1 THREAD PER RANK
        NUMBER OF EQUATIONS:  32
        NUMBER OF RHS:        1
        NUMBER OF FLOPS:      2.189e+04
        SOLVER ELAPSED TIME:  0ms

               CONVERGENCE CHECKS FOR EQUILIBRIUM ITERATION     1


 AVERAGE FORCE                      1.050E+04   TIME AVG. FORCE       5.495E+03
 LARGEST SCALED RESIDUAL FORCE      5.180E-13   AT NODE          3   DOF  1
   INSTANCE: CUBE_ASSEMBLY                                                                   
  CORRESPONDING RESIDUAL FORCE      5.180E-13
 LARGEST INCREMENT OF DISP.         1.000E-05   AT NODE          1   DOF  2
   INSTANCE: CUBE_ASSEMBLY                                                                   
 LARGEST CORRECTION TO DISP.        3.463E-20   AT NODE          4   DOF  1
   INSTANCE: CUBE_ASSEMBLY                                                                   
          THE FORCE     EQUILIBRIUM RESPONSE WAS LINEAR IN THIS INCREMENT

 AVERAGE HEAT FLUX                  2.096E-25   TIME AVG. HEAT FLUX   1.000E-02
 LARGEST RESIDUAL HEAT FLUX        -5.083E-25   AT NODE          4   DOF 11
   INSTANCE: CUBE_ASSEMBLY                                                                   
 LARGEST INCREMENT OF TEMP.         1.481E-16   AT NODE          4   DOF 11
   INSTANCE: CUBE_ASSEMBLY                                                                   
 LARGEST CORRECTION TO TEMP.        1.330E-16   AT NODE          2   DOF 11
   INSTANCE: CUBE_ASSEMBLY                                                                   
          THERE IS ZERO HEAT FLUX EVERYWHERE
 

 ***WARNING: THERE IS ZERO HEAT FLUX EVERYWHERE IN THE MODEL BASED ON THE 
             DEFAULT CRITERION. PLEASE CHECK THE VALUE OF THE AVERAGE HEAT FLUX 
             DURING THE CURRENT ITERATION TO VERIFY THAT THE HEAT FLUX IS SMALL 
             ENOUGH TO BE TREATED AS ZERO. IF NOT, PLEASE USE THE SOLUTION 
             CONTROLS TO RESET THE CRITERION FOR ZERO HEAT FLUX.

 ITERATION SUMMARY FOR THE INCREMENT:   1 TOTAL ITERATIONS, OF WHICH
   0 ARE SEVERE DISCONTINUITY ITERATIONS AND  1 ARE EQUILIBRIUM ITERATIONS.

 TIME INCREMENT COMPLETED   1.00    ,  FRACTION OF STEP COMPLETED  0.200    
 STEP TIME COMPLETED        20.0    ,  TOTAL TIME COMPLETED         20.0    


  INCREMENT    21 STARTS. ATTEMPT NUMBER  1, TIME INCREMENT   1.00    
 
	UNSYMMETRIC NEW DIRECT SPARSE SOLVER RUNNING ON
 	1 HOST x 1 MPI RANK PER HOST x 1 THREAD PER RANK
        NUMBER OF EQUATIONS:  32
        NUMBER OF RHS:        1
        NUMBER OF FLOPS:      2.189e+04
        SOLVER ELAPSED TIME:  0ms

               CONVERGENCE CHECKS FOR EQUILIBRIUM ITERATION     1


 AVERAGE FORCE                      1.103E+04   TIME AVG. FORCE       5.758E+03
 LARGEST SCALED RESIDUAL FORCE      1.164E-12   AT NODE          1   DOF  3
   INSTANCE: CUBE_ASSEMBLY                                                                   
  CORRESPONDING RESIDUAL FORCE      1.164E-12
 LARGEST INCREMENT OF DISP.         1.000E-05   AT NODE          1   DOF  2
   INSTANCE: CUBE_ASSEMBLY                                                                   
 LARGEST CORRECTION TO DISP.        4.278E-20   AT NODE          3   DOF  1
   INSTANCE: CUBE_ASSEMBLY                                                                   
          THE FORCE     EQUILIBRIUM RESPONSE WAS LINEAR IN THIS INCREMENT

 AVERAGE HEAT FLUX                  2.056E-25   TIME AVG. HEAT FLUX   1.000E-02
 LARGEST RESIDUAL HEAT FLUX         3.382E-25   AT NODE          4   DOF 11
   INSTANCE: CUBE_ASSEMBLY                                                                   
 LARGEST INCREMENT OF TEMP.        -2.501E-16   AT NODE          4   DOF 11
   INSTANCE: CUBE_ASSEMBLY                                                                   
 LARGEST CORRECTION TO TEMP.       -3.982E-16   AT NODE          4   DOF 11
   INSTANCE: CUBE_ASSEMBLY                                                                   
          THERE IS ZERO HEAT FLUX EVERYWHERE
 

 ***WARNING: THERE IS ZERO HEAT FLUX EVERYWHERE IN THE MODEL BASED ON THE 
             DEFAULT CRITERION. PLEASE CHECK THE VALUE OF THE AVERAGE HEAT FLUX 
             DURING THE CURRENT ITERATION TO VERIFY THAT THE HEAT FLUX IS SMALL 
             ENOUGH TO BE TREATED AS ZERO. IF NOT, PLEASE USE THE SOLUTION 
             CONTROLS TO RESET THE CRITERION FOR ZERO HEAT FLUX.

 ITERATION SUMMARY FOR THE INCREMENT:   1 TOTAL ITERATIONS, OF WHICH
   0 ARE SEVERE DISCONTINUITY ITERATIONS AND  1 ARE EQUILIBRIUM ITERATIONS.

 TIME INCREMENT COMPLETED   1.00    ,  FRACTION OF STEP COMPLETED  0.210    
 STEP TIME COMPLETED        21.0    ,  TOTAL TIME COMPLETED         21.0    


  INCREMENT    22 STARTS. ATTEMPT NUMBER  1, TIME INCREMENT   1.00    
 
	UNSYMMETRIC NEW DIRECT SPARSE SOLVER RUNNING ON
 	1 HOST x 1 MPI RANK PER HOST x 1 THREAD PER RANK
        NUMBER OF EQUATIONS:  32
        NUMBER OF RHS:        1
        NUMBER OF FLOPS:      2.189e+04
        SOLVER ELAPSED TIME:  0ms

               CONVERGENCE CHECKS FOR EQUILIBRIUM ITERATION     1


 AVERAGE FORCE                      1.155E+04   TIME AVG. FORCE       6.022E+03
 LARGEST SCALED RESIDUAL FORCE     -5.927E-13   AT NODE          5   DOF  3
   INSTANCE: CUBE_ASSEMBLY                                                                   
  CORRESPONDING RESIDUAL FORCE     -5.927E-13
 LARGEST INCREMENT OF DISP.         1.000E-05   AT NODE          1   DOF  2
   INSTANCE: CUBE_ASSEMBLY                                                                   
 LARGEST CORRECTION TO DISP.       -4.448E-20   AT NODE          3   DOF  1
   INSTANCE: CUBE_ASSEMBLY                                                                   
          THE FORCE     EQUILIBRIUM RESPONSE WAS LINEAR IN THIS INCREMENT

 AVERAGE HEAT FLUX                  1.649E-25   TIME AVG. HEAT FLUX   1.000E-02
 LARGEST RESIDUAL HEAT FLUX         3.091E-25   AT NODE          4   DOF 11
   INSTANCE: CUBE_ASSEMBLY                                                                   
 LARGEST INCREMENT OF TEMP.        -6.840E-17   AT NODE          2   DOF 11
   INSTANCE: CUBE_ASSEMBLY                                                                   
 LARGEST CORRECTION TO TEMP.        2.587E-16   AT NODE          4   DOF 11
   INSTANCE: CUBE_ASSEMBLY                                                                   
          THERE IS ZERO HEAT FLUX EVERYWHERE
 

 ***WARNING: THERE IS ZERO HEAT FLUX EVERYWHERE IN THE MODEL BASED ON THE 
             DEFAULT CRITERION. PLEASE CHECK THE VALUE OF THE AVERAGE HEAT FLUX 
             DURING THE CURRENT ITERATION TO VERIFY THAT THE HEAT FLUX IS SMALL 
             ENOUGH TO BE TREATED AS ZERO. IF NOT, PLEASE USE THE SOLUTION 
             CONTROLS TO RESET THE CRITERION FOR ZERO HEAT FLUX.

 ITERATION SUMMARY FOR THE INCREMENT:   1 TOTAL ITERATIONS, OF WHICH
   0 ARE SEVERE DISCONTINUITY ITERATIONS AND  1 ARE EQUILIBRIUM ITERATIONS.

 TIME INCREMENT COMPLETED   1.00    ,  FRACTION OF STEP COMPLETED  0.220    
 STEP TIME COMPLETED        22.0    ,  TOTAL TIME COMPLETED         22.0    


  INCREMENT    23 STARTS. ATTEMPT NUMBER  1, TIME INCREMENT   1.00    
 
	UNSYMMETRIC NEW DIRECT SPARSE SOLVER RUNNING ON
 	1 HOST x 1 MPI RANK PER HOST x 1 THREAD PER RANK
        NUMBER OF EQUATIONS:  32
        NUMBER OF RHS:        1
        NUMBER OF FLOPS:      2.189e+04
        SOLVER ELAPSED TIME:  0ms

               CONVERGENCE CHECKS FOR EQUILIBRIUM ITERATION     1


 AVERAGE FORCE                      1.208E+04   TIME AVG. FORCE       6.285E+03
 LARGEST SCALED RESIDUAL FORCE      3.508E-13   AT NODE          1   DOF  1
   INSTANCE: CUBE_ASSEMBLY                                                                   
  CORRESPONDING RESIDUAL FORCE      3.508E-13
 LARGEST INCREMENT OF DISP.         1.000E-05   AT NODE          1   DOF  2
   INSTANCE: CUBE_ASSEMBLY                                                                   
 LARGEST CORRECTION TO DISP.        3.978E-20   AT NODE          1   DOF  3
   INSTANCE: CUBE_ASSEMBLY                                                                   
          THE FORCE     EQUILIBRIUM RESPONSE WAS LINEAR IN THIS INCREMENT

 AVERAGE HEAT FLUX                  2.000E-25   TIME AVG. HEAT FLUX   1.000E-02
 LARGEST RESIDUAL HEAT FLUX         2.993E-25   AT NODE          4   DOF 11
   INSTANCE: CUBE_ASSEMBLY                                                                   
 LARGEST INCREMENT OF TEMP.         6.142E-17   AT NODE          4   DOF 11
   INSTANCE: CUBE_ASSEMBLY                                                                   
 LARGEST CORRECTION TO TEMP.        1.283E-16   AT NODE          2   DOF 11
   INSTANCE: CUBE_ASSEMBLY                                                                   
          THERE IS ZERO HEAT FLUX EVERYWHERE
 

 ***WARNING: THERE IS ZERO HEAT FLUX EVERYWHERE IN THE MODEL BASED ON THE 
             DEFAULT CRITERION. PLEASE CHECK THE VALUE OF THE AVERAGE HEAT FLUX 
             DURING THE CURRENT ITERATION TO VERIFY THAT THE HEAT FLUX IS SMALL 
             ENOUGH TO BE TREATED AS ZERO. IF NOT, PLEASE USE THE SOLUTION 
             CONTROLS TO RESET THE CRITERION FOR ZERO HEAT FLUX.

 ITERATION SUMMARY FOR THE INCREMENT:   1 TOTAL ITERATIONS, OF WHICH
   0 ARE SEVERE DISCONTINUITY ITERATIONS AND  1 ARE EQUILIBRIUM ITERATIONS.

 TIME INCREMENT COMPLETED   1.00    ,  FRACTION OF STEP COMPLETED  0.230    
 STEP TIME COMPLETED        23.0    ,  TOTAL TIME COMPLETED         23.0    


  INCREMENT    24 STARTS. ATTEMPT NUMBER  1, TIME INCREMENT   1.00    
 
	UNSYMMETRIC NEW DIRECT SPARSE SOLVER RUNNING ON
 	1 HOST x 1 MPI RANK PER HOST x 1 THREAD PER RANK
        NUMBER OF EQUATIONS:  32
        NUMBER OF RHS:        1
        NUMBER OF FLOPS:      2.189e+04
        SOLVER ELAPSED TIME:  0ms

               CONVERGENCE CHECKS FOR EQUILIBRIUM ITERATION     1


 AVERAGE FORCE                      1.260E+04   TIME AVG. FORCE       6.548E+03
 LARGEST SCALED RESIDUAL FORCE     -3.646E-13   AT NODE          1   DOF  1
   INSTANCE: CUBE_ASSEMBLY                                                                   
  CORRESPONDING RESIDUAL FORCE     -3.646E-13
 LARGEST INCREMENT OF DISP.         1.000E-05   AT NODE          1   DOF  2
   INSTANCE: CUBE_ASSEMBLY                                                                   
 LARGEST CORRECTION TO DISP.       -4.488E-20   AT NODE          1   DOF  3
   INSTANCE: CUBE_ASSEMBLY                                                                   
          THE FORCE     EQUILIBRIUM RESPONSE WAS LINEAR IN THIS INCREMENT

 AVERAGE HEAT FLUX                  1.847E-25   TIME AVG. HEAT FLUX   1.000E-02
 LARGEST RESIDUAL HEAT FLUX        -5.412E-25   AT NODE          4   DOF 11
   INSTANCE: CUBE_ASSEMBLY                                                                   
 LARGEST INCREMENT OF TEMP.         1.554E-16   AT NODE          4   DOF 11
   INSTANCE: CUBE_ASSEMBLY                                                                   
 LARGEST CORRECTION TO TEMP.        9.400E-17   AT NODE          4   DOF 11
   INSTANCE: CUBE_ASSEMBLY                                                                   
          THERE IS ZERO HEAT FLUX EVERYWHERE
 

 ***WARNING: THERE IS ZERO HEAT FLUX EVERYWHERE IN THE MODEL BASED ON THE 
             DEFAULT CRITERION. PLEASE CHECK THE VALUE OF THE AVERAGE HEAT FLUX 
             DURING THE CURRENT ITERATION TO VERIFY THAT THE HEAT FLUX IS SMALL 
             ENOUGH TO BE TREATED AS ZERO. IF NOT, PLEASE USE THE SOLUTION 
             CONTROLS TO RESET THE CRITERION FOR ZERO HEAT FLUX.

 ITERATION SUMMARY FOR THE INCREMENT:   1 TOTAL ITERATIONS, OF WHICH
   0 ARE SEVERE DISCONTINUITY ITERATIONS AND  1 ARE EQUILIBRIUM ITERATIONS.

 TIME INCREMENT COMPLETED   1.00    ,  FRACTION OF STEP COMPLETED  0.240    
 STEP TIME COMPLETED        24.0    ,  TOTAL TIME COMPLETED         24.0    


  INCREMENT    25 STARTS. ATTEMPT NUMBER  1, TIME INCREMENT   1.00    
 
	UNSYMMETRIC NEW DIRECT SPARSE SOLVER RUNNING ON
 	1 HOST x 1 MPI RANK PER HOST x 1 THREAD PER RANK
        NUMBER OF EQUATIONS:  32
        NUMBER OF RHS:        1
        NUMBER OF FLOPS:      2.189e+04
        SOLVER ELAPSED TIME:  0ms

               CONVERGENCE CHECKS FOR EQUILIBRIUM ITERATION     1


 AVERAGE FORCE                      1.313E+04   TIME AVG. FORCE       6.811E+03
 LARGEST SCALED RESIDUAL FORCE      5.524E-13   AT NODE          2   DOF  3
   INSTANCE: CUBE_ASSEMBLY                                                                   
  CORRESPONDING RESIDUAL FORCE      5.524E-13
 LARGEST INCREMENT OF DISP.         1.000E-05   AT NODE          1   DOF  2
   INSTANCE: CUBE_ASSEMBLY                                                                   
 LARGEST CORRECTION TO DISP.       -2.955E-20   AT NODE          2   DOF  1
   INSTANCE: CUBE_ASSEMBLY                                                                   
          THE FORCE     EQUILIBRIUM RESPONSE WAS LINEAR IN THIS INCREMENT

 AVERAGE HEAT FLUX                  1.561E-25   TIME AVG. HEAT FLUX   1.000E-02
 LARGEST RESIDUAL HEAT FLUX         3.252E-25   AT NODE          4   DOF 11
   INSTANCE: CUBE_ASSEMBLY                                                                   
 LARGEST INCREMENT OF TEMP.        -2.433E-16   AT NODE          4   DOF 11
   INSTANCE: CUBE_ASSEMBLY                                                                   
 LARGEST CORRECTION TO TEMP.       -3.987E-16   AT NODE          4   DOF 11
   INSTANCE: CUBE_ASSEMBLY                                                                   
          THERE IS ZERO HEAT FLUX EVERYWHERE
 

 ***WARNING: THERE IS ZERO HEAT FLUX EVERYWHERE IN THE MODEL BASED ON THE 
             DEFAULT CRITERION. PLEASE CHECK THE VALUE OF THE AVERAGE HEAT FLUX 
             DURING THE CURRENT ITERATION TO VERIFY THAT THE HEAT FLUX IS SMALL 
             ENOUGH TO BE TREATED AS ZERO. IF NOT, PLEASE USE THE SOLUTION 
             CONTROLS TO RESET THE CRITERION FOR ZERO HEAT FLUX.

 ITERATION SUMMARY FOR THE INCREMENT:   1 TOTAL ITERATIONS, OF WHICH
   0 ARE SEVERE DISCONTINUITY ITERATIONS AND  1 ARE EQUILIBRIUM ITERATIONS.

 TIME INCREMENT COMPLETED   1.00    ,  FRACTION OF STEP COMPLETED  0.250    
 STEP TIME COMPLETED        25.0    ,  TOTAL TIME COMPLETED         25.0    


  INCREMENT    26 STARTS. ATTEMPT NUMBER  1, TIME INCREMENT   1.00    
 
	UNSYMMETRIC NEW DIRECT SPARSE SOLVER RUNNING ON
 	1 HOST x 1 MPI RANK PER HOST x 1 THREAD PER RANK
        NUMBER OF EQUATIONS:  32
        NUMBER OF RHS:        1
        NUMBER OF FLOPS:      2.189e+04
        SOLVER ELAPSED TIME:  0ms

               CONVERGENCE CHECKS FOR EQUILIBRIUM ITERATION     1


 AVERAGE FORCE                      1.365E+04   TIME AVG. FORCE       7.074E+03
 LARGEST SCALED RESIDUAL FORCE     -4.885E-13   AT NODE          4   DOF  1
   INSTANCE: CUBE_ASSEMBLY                                                                   
  CORRESPONDING RESIDUAL FORCE     -4.885E-13
 LARGEST INCREMENT OF DISP.         1.000E-05   AT NODE          1   DOF  2
   INSTANCE: CUBE_ASSEMBLY                                                                   
 LARGEST CORRECTION TO DISP.       -5.284E-20   AT NODE          5   DOF  3
   INSTANCE: CUBE_ASSEMBLY                                                                   
          THE FORCE     EQUILIBRIUM RESPONSE WAS LINEAR IN THIS INCREMENT

 AVERAGE HEAT FLUX                  2.026E-25   TIME AVG. HEAT FLUX   1.000E-02
 LARGEST RESIDUAL HEAT FLUX         3.067E-25   AT NODE          4   DOF 11
   INSTANCE: CUBE_ASSEMBLY                                                                   
 LARGEST INCREMENT OF TEMP.         1.334E-16   AT NODE          8   DOF 11
   INSTANCE: CUBE_ASSEMBLY                                                                   
 LARGEST CORRECTION TO TEMP.        2.452E-16   AT NODE          4   DOF 11
   INSTANCE: CUBE_ASSEMBLY                                                                   
          THERE IS ZERO HEAT FLUX EVERYWHERE
 

 ***WARNING: THERE IS ZERO HEAT FLUX EVERYWHERE IN THE MODEL BASED ON THE 
             DEFAULT CRITERION. PLEASE CHECK THE VALUE OF THE AVERAGE HEAT FLUX 
             DURING THE CURRENT ITERATION TO VERIFY THAT THE HEAT FLUX IS SMALL 
             ENOUGH TO BE TREATED AS ZERO. IF NOT, PLEASE USE THE SOLUTION 
             CONTROLS TO RESET THE CRITERION FOR ZERO HEAT FLUX.

 ITERATION SUMMARY FOR THE INCREMENT:   1 TOTAL ITERATIONS, OF WHICH
   0 ARE SEVERE DISCONTINUITY ITERATIONS AND  1 ARE EQUILIBRIUM ITERATIONS.

 TIME INCREMENT COMPLETED   1.00    ,  FRACTION OF STEP COMPLETED  0.260    
 STEP TIME COMPLETED        26.0    ,  TOTAL TIME COMPLETED         26.0    


  INCREMENT    27 STARTS. ATTEMPT NUMBER  1, TIME INCREMENT   1.00    
 
	UNSYMMETRIC NEW DIRECT SPARSE SOLVER RUNNING ON
 	1 HOST x 1 MPI RANK PER HOST x 1 THREAD PER RANK
        NUMBER OF EQUATIONS:  32
        NUMBER OF RHS:        1
        NUMBER OF FLOPS:      2.189e+04
        SOLVER ELAPSED TIME:  0ms

               CONVERGENCE CHECKS FOR EQUILIBRIUM ITERATION     1


 AVERAGE FORCE                      1.418E+04   TIME AVG. FORCE       7.337E+03
 LARGEST SCALED RESIDUAL FORCE      1.321E-12   AT NODE          2   DOF  3
   INSTANCE: CUBE_ASSEMBLY                                                                   
  CORRESPONDING RESIDUAL FORCE      1.321E-12
 LARGEST INCREMENT OF DISP.         1.000E-05   AT NODE          1   DOF  2
   INSTANCE: CUBE_ASSEMBLY                                                                   
 LARGEST CORRECTION TO DISP.        6.455E-20   AT NODE          5   DOF  3
   INSTANCE: CUBE_ASSEMBLY                                                                   
          THE FORCE     EQUILIBRIUM RESPONSE WAS LINEAR IN THIS INCREMENT

 AVERAGE HEAT FLUX                  1.534E-25   TIME AVG. HEAT FLUX   1.000E-02
 LARGEST RESIDUAL HEAT FLUX         2.868E-25   AT NODE          4   DOF 11
   INSTANCE: CUBE_ASSEMBLY                                                                   
 LARGEST INCREMENT OF TEMP.        -1.351E-16   AT NODE          2   DOF 11
   INSTANCE: CUBE_ASSEMBLY                                                                   
 LARGEST CORRECTION TO TEMP.       -2.597E-16   AT NODE          2   DOF 11
   INSTANCE: CUBE_ASSEMBLY                                                                   
          THERE IS ZERO HEAT FLUX EVERYWHERE
 

 ***WARNING: THERE IS ZERO HEAT FLUX EVERYWHERE IN THE MODEL BASED ON THE 
             DEFAULT CRITERION. PLEASE CHECK THE VALUE OF THE AVERAGE HEAT FLUX 
             DURING THE CURRENT ITERATION TO VERIFY THAT THE HEAT FLUX IS SMALL 
             ENOUGH TO BE TREATED AS ZERO. IF NOT, PLEASE USE THE SOLUTION 
             CONTROLS TO RESET THE CRITERION FOR ZERO HEAT FLUX.

 ITERATION SUMMARY FOR THE INCREMENT:   1 TOTAL ITERATIONS, OF WHICH
   0 ARE SEVERE DISCONTINUITY ITERATIONS AND  1 ARE EQUILIBRIUM ITERATIONS.

 TIME INCREMENT COMPLETED   1.00    ,  FRACTION OF STEP COMPLETED  0.270    
 STEP TIME COMPLETED        27.0    ,  TOTAL TIME COMPLETED         27.0    


  INCREMENT    28 STARTS. ATTEMPT NUMBER  1, TIME INCREMENT   1.00    
 
	UNSYMMETRIC NEW DIRECT SPARSE SOLVER RUNNING ON
 	1 HOST x 1 MPI RANK PER HOST x 1 THREAD PER RANK
        NUMBER OF EQUATIONS:  32
        NUMBER OF RHS:        1
        NUMBER OF FLOPS:      2.189e+04
        SOLVER ELAPSED TIME:  0ms

               CONVERGENCE CHECKS FOR EQUILIBRIUM ITERATION     1


 AVERAGE FORCE                      1.470E+04   TIME AVG. FORCE       7.600E+03
 LARGEST SCALED RESIDUAL FORCE     -8.745E-13   AT NODE          2   DOF  3
   INSTANCE: CUBE_ASSEMBLY                                                                   
  CORRESPONDING RESIDUAL FORCE     -8.745E-13
 LARGEST INCREMENT OF DISP.         1.000E-05   AT NODE          1   DOF  2
   INSTANCE: CUBE_ASSEMBLY                                                                   
 LARGEST CORRECTION TO DISP.        1.107E-19   AT NODE          2   DOF  3
   INSTANCE: CUBE_ASSEMBLY                                                                   
          THE FORCE     EQUILIBRIUM RESPONSE WAS LINEAR IN THIS INCREMENT

 AVERAGE HEAT FLUX                  1.843E-25   TIME AVG. HEAT FLUX   1.000E-02
 LARGEST RESIDUAL HEAT FLUX        -5.580E-25   AT NODE          4   DOF 11
   INSTANCE: CUBE_ASSEMBLY                                                                   
 LARGEST INCREMENT OF TEMP.         1.258E-16   AT NODE          4   DOF 11
   INSTANCE: CUBE_ASSEMBLY                                                                   
 LARGEST CORRECTION TO TEMP.        1.925E-16   AT NODE          8   DOF 11
   INSTANCE: CUBE_ASSEMBLY                                                                   
          THERE IS ZERO HEAT FLUX EVERYWHERE
 

 ***WARNING: THERE IS ZERO HEAT FLUX EVERYWHERE IN THE MODEL BASED ON THE 
             DEFAULT CRITERION. PLEASE CHECK THE VALUE OF THE AVERAGE HEAT FLUX 
             DURING THE CURRENT ITERATION TO VERIFY THAT THE HEAT FLUX IS SMALL 
             ENOUGH TO BE TREATED AS ZERO. IF NOT, PLEASE USE THE SOLUTION 
             CONTROLS TO RESET THE CRITERION FOR ZERO HEAT FLUX.

 ITERATION SUMMARY FOR THE INCREMENT:   1 TOTAL ITERATIONS, OF WHICH
   0 ARE SEVERE DISCONTINUITY ITERATIONS AND  1 ARE EQUILIBRIUM ITERATIONS.

 TIME INCREMENT COMPLETED   1.00    ,  FRACTION OF STEP COMPLETED  0.280    
 STEP TIME COMPLETED        28.0    ,  TOTAL TIME COMPLETED         28.0    


  INCREMENT    29 STARTS. ATTEMPT NUMBER  1, TIME INCREMENT   1.00    
 
	UNSYMMETRIC NEW DIRECT SPARSE SOLVER RUNNING ON
 	1 HOST x 1 MPI RANK PER HOST x 1 THREAD PER RANK
        NUMBER OF EQUATIONS:  32
        NUMBER OF RHS:        1
        NUMBER OF FLOPS:      2.189e+04
        SOLVER ELAPSED TIME:  0ms

               CONVERGENCE CHECKS FOR EQUILIBRIUM ITERATION     1


 AVERAGE FORCE                      1.523E+04   TIME AVG. FORCE       7.863E+03
 LARGEST SCALED RESIDUAL FORCE      7.945E-13   AT NODE          2   DOF  3
   INSTANCE: CUBE_ASSEMBLY                                                                   
  CORRESPONDING RESIDUAL FORCE      7.945E-13
 LARGEST INCREMENT OF DISP.         1.000E-05   AT NODE          1   DOF  2
   INSTANCE: CUBE_ASSEMBLY                                                                   
 LARGEST CORRECTION TO DISP.       -1.009E-19   AT NODE          2   DOF  3
   INSTANCE: CUBE_ASSEMBLY                                                                   
          THE FORCE     EQUILIBRIUM RESPONSE WAS LINEAR IN THIS INCREMENT

 AVERAGE HEAT FLUX                  1.689E-25   TIME AVG. HEAT FLUX   1.000E-02
 LARGEST RESIDUAL HEAT FLUX         3.434E-25   AT NODE          4   DOF 11
   INSTANCE: CUBE_ASSEMBLY                                                                   
 LARGEST INCREMENT OF TEMP.        -2.658E-16   AT NODE          4   DOF 11
   INSTANCE: CUBE_ASSEMBLY                                                                   
 LARGEST CORRECTION TO TEMP.       -3.916E-16   AT NODE          4   DOF 11
   INSTANCE: CUBE_ASSEMBLY                                                                   
          THERE IS ZERO HEAT FLUX EVERYWHERE
 

 ***WARNING: THERE IS ZERO HEAT FLUX EVERYWHERE IN THE MODEL BASED ON THE 
             DEFAULT CRITERION. PLEASE CHECK THE VALUE OF THE AVERAGE HEAT FLUX 
             DURING THE CURRENT ITERATION TO VERIFY THAT THE HEAT FLUX IS SMALL 
             ENOUGH TO BE TREATED AS ZERO. IF NOT, PLEASE USE THE SOLUTION 
             CONTROLS TO RESET THE CRITERION FOR ZERO HEAT FLUX.

 ITERATION SUMMARY FOR THE INCREMENT:   1 TOTAL ITERATIONS, OF WHICH
   0 ARE SEVERE DISCONTINUITY ITERATIONS AND  1 ARE EQUILIBRIUM ITERATIONS.

 TIME INCREMENT COMPLETED   1.00    ,  FRACTION OF STEP COMPLETED  0.290    
 STEP TIME COMPLETED        29.0    ,  TOTAL TIME COMPLETED         29.0    


  INCREMENT    30 STARTS. ATTEMPT NUMBER  1, TIME INCREMENT   1.00    
 
	UNSYMMETRIC NEW DIRECT SPARSE SOLVER RUNNING ON
 	1 HOST x 1 MPI RANK PER HOST x 1 THREAD PER RANK
        NUMBER OF EQUATIONS:  32
        NUMBER OF RHS:        1
        NUMBER OF FLOPS:      2.189e+04
        SOLVER ELAPSED TIME:  0ms

               CONVERGENCE CHECKS FOR EQUILIBRIUM ITERATION     1


 AVERAGE FORCE                      1.575E+04   TIME AVG. FORCE       8.126E+03
 LARGEST SCALED RESIDUAL FORCE     -6.451E-13   AT NODE          1   DOF  3
   INSTANCE: CUBE_ASSEMBLY                                                                   
  CORRESPONDING RESIDUAL FORCE     -6.451E-13
 LARGEST INCREMENT OF DISP.         1.000E-05   AT NODE          1   DOF  2
   INSTANCE: CUBE_ASSEMBLY                                                                   
 LARGEST CORRECTION TO DISP.       -1.089E-19   AT NODE          6   DOF  3
   INSTANCE: CUBE_ASSEMBLY                                                                   
          THE FORCE     EQUILIBRIUM RESPONSE WAS LINEAR IN THIS INCREMENT

 AVERAGE HEAT FLUX                  1.992E-25   TIME AVG. HEAT FLUX   1.000E-02
 LARGEST RESIDUAL HEAT FLUX         3.087E-25   AT NODE          4   DOF 11
   INSTANCE: CUBE_ASSEMBLY                                                                   
 LARGEST INCREMENT OF TEMP.         9.652E-17   AT NODE          6   DOF 11
   INSTANCE: CUBE_ASSEMBLY                                                                   
 LARGEST CORRECTION TO TEMP.        2.517E-16   AT NODE          4   DOF 11
   INSTANCE: CUBE_ASSEMBLY                                                                   
          THERE IS ZERO HEAT FLUX EVERYWHERE
 

 ***WARNING: THERE IS ZERO HEAT FLUX EVERYWHERE IN THE MODEL BASED ON THE 
             DEFAULT CRITERION. PLEASE CHECK THE VALUE OF THE AVERAGE HEAT FLUX 
             DURING THE CURRENT ITERATION TO VERIFY THAT THE HEAT FLUX IS SMALL 
             ENOUGH TO BE TREATED AS ZERO. IF NOT, PLEASE USE THE SOLUTION 
             CONTROLS TO RESET THE CRITERION FOR ZERO HEAT FLUX.

 ITERATION SUMMARY FOR THE INCREMENT:   1 TOTAL ITERATIONS, OF WHICH
   0 ARE SEVERE DISCONTINUITY ITERATIONS AND  1 ARE EQUILIBRIUM ITERATIONS.

 TIME INCREMENT COMPLETED   1.00    ,  FRACTION OF STEP COMPLETED  0.300    
 STEP TIME COMPLETED        30.0    ,  TOTAL TIME COMPLETED         30.0    


  INCREMENT    31 STARTS. ATTEMPT NUMBER  1, TIME INCREMENT   1.00    
 
	UNSYMMETRIC NEW DIRECT SPARSE SOLVER RUNNING ON
 	1 HOST x 1 MPI RANK PER HOST x 1 THREAD PER RANK
        NUMBER OF EQUATIONS:  32
        NUMBER OF RHS:        1
        NUMBER OF FLOPS:      2.189e+04
        SOLVER ELAPSED TIME:  0ms

               CONVERGENCE CHECKS FOR EQUILIBRIUM ITERATION     1


 AVERAGE FORCE                      1.628E+04   TIME AVG. FORCE       8.389E+03
 LARGEST SCALED RESIDUAL FORCE      7.804E-13   AT NODE          1   DOF  3
   INSTANCE: CUBE_ASSEMBLY                                                                   
  CORRESPONDING RESIDUAL FORCE      7.804E-13
 LARGEST INCREMENT OF DISP.         1.000E-05   AT NODE          1   DOF  2
   INSTANCE: CUBE_ASSEMBLY                                                                   
 LARGEST CORRECTION TO DISP.       -7.024E-20   AT NODE          1   DOF  3
   INSTANCE: CUBE_ASSEMBLY                                                                   
          THE FORCE     EQUILIBRIUM RESPONSE WAS LINEAR IN THIS INCREMENT

 AVERAGE HEAT FLUX                  3.403E-25   TIME AVG. HEAT FLUX   1.000E-02
 LARGEST RESIDUAL HEAT FLUX        -7.613E-25   AT NODE          6   DOF 11
   INSTANCE: CUBE_ASSEMBLY                                                                   
 LARGEST INCREMENT OF TEMP.         1.228E-16   AT NODE          6   DOF 11
   INSTANCE: CUBE_ASSEMBLY                                                                   
 LARGEST CORRECTION TO TEMP.        9.560E-17   AT NODE          4   DOF 11
   INSTANCE: CUBE_ASSEMBLY                                                                   
          THERE IS ZERO HEAT FLUX EVERYWHERE
 

 ***WARNING: THERE IS ZERO HEAT FLUX EVERYWHERE IN THE MODEL BASED ON THE 
             DEFAULT CRITERION. PLEASE CHECK THE VALUE OF THE AVERAGE HEAT FLUX 
             DURING THE CURRENT ITERATION TO VERIFY THAT THE HEAT FLUX IS SMALL 
             ENOUGH TO BE TREATED AS ZERO. IF NOT, PLEASE USE THE SOLUTION 
             CONTROLS TO RESET THE CRITERION FOR ZERO HEAT FLUX.

 ITERATION SUMMARY FOR THE INCREMENT:   1 TOTAL ITERATIONS, OF WHICH
   0 ARE SEVERE DISCONTINUITY ITERATIONS AND  1 ARE EQUILIBRIUM ITERATIONS.

 TIME INCREMENT COMPLETED   1.00    ,  FRACTION OF STEP COMPLETED  0.310    
 STEP TIME COMPLETED        31.0    ,  TOTAL TIME COMPLETED         31.0    


  INCREMENT    32 STARTS. ATTEMPT NUMBER  1, TIME INCREMENT   1.00    
 
	UNSYMMETRIC NEW DIRECT SPARSE SOLVER RUNNING ON
 	1 HOST x 1 MPI RANK PER HOST x 1 THREAD PER RANK
        NUMBER OF EQUATIONS:  32
        NUMBER OF RHS:        1
        NUMBER OF FLOPS:      2.189e+04
        SOLVER ELAPSED TIME:  0ms

               CONVERGENCE CHECKS FOR EQUILIBRIUM ITERATION     1


 AVERAGE FORCE                      1.680E+04   TIME AVG. FORCE       8.652E+03
 LARGEST SCALED RESIDUAL FORCE     -1.296E-12   AT NODE          6   DOF  3
[...]
   INSTANCE: CUBE_ASSEMBLY                                                                   
  CORRESPONDING RESIDUAL FORCE     -3.659E-12
 LARGEST INCREMENT OF DISP.         1.000E-05   AT NODE          1   DOF  2
   INSTANCE: CUBE_ASSEMBLY                                                                   
 LARGEST CORRECTION TO DISP.       -1.555E-19   AT NODE          4   DOF  1
   INSTANCE: CUBE_ASSEMBLY                                                                   
          THE FORCE     EQUILIBRIUM RESPONSE WAS LINEAR IN THIS INCREMENT

 AVERAGE HEAT FLUX                  2.658E-25   TIME AVG. HEAT FLUX   1.000E-02
 LARGEST RESIDUAL HEAT FLUX         6.315E-25   AT NODE          4   DOF 11
   INSTANCE: CUBE_ASSEMBLY                                                                   
 LARGEST INCREMENT OF TEMP.        -2.856E-16   AT NODE          4   DOF 11
   INSTANCE: CUBE_ASSEMBLY                                                                   
 LARGEST CORRECTION TO TEMP.       -4.006E-16   AT NODE          4   DOF 11
   INSTANCE: CUBE_ASSEMBLY                                                                   
          THERE IS ZERO HEAT FLUX EVERYWHERE
 

 ***WARNING: THERE IS ZERO HEAT FLUX EVERYWHERE IN THE MODEL BASED ON THE 
             DEFAULT CRITERION. PLEASE CHECK THE VALUE OF THE AVERAGE HEAT FLUX 
             DURING THE CURRENT ITERATION TO VERIFY THAT THE HEAT FLUX IS SMALL 
             ENOUGH TO BE TREATED AS ZERO. IF NOT, PLEASE USE THE SOLUTION 
             CONTROLS TO RESET THE CRITERION FOR ZERO HEAT FLUX.

 ITERATION SUMMARY FOR THE INCREMENT:   1 TOTAL ITERATIONS, OF WHICH
   0 ARE SEVERE DISCONTINUITY ITERATIONS AND  1 ARE EQUILIBRIUM ITERATIONS.

 TIME INCREMENT COMPLETED   1.00    ,  FRACTION OF STEP COMPLETED  0.930    
 STEP TIME COMPLETED        93.0    ,  TOTAL TIME COMPLETED         93.0    


  INCREMENT    94 STARTS. ATTEMPT NUMBER  1, TIME INCREMENT   1.00    
 
	UNSYMMETRIC NEW DIRECT SPARSE SOLVER RUNNING ON
 	1 HOST x 1 MPI RANK PER HOST x 1 THREAD PER RANK
        NUMBER OF EQUATIONS:  32
        NUMBER OF RHS:        1
        NUMBER OF FLOPS:      2.189e+04
        SOLVER ELAPSED TIME:  1ms

               CONVERGENCE CHECKS FOR EQUILIBRIUM ITERATION     1


 AVERAGE FORCE                      4.935E+04   TIME AVG. FORCE       2.493E+04
 LARGEST SCALED RESIDUAL FORCE     -2.506E-12   AT NODE          3   DOF  1
   INSTANCE: CUBE_ASSEMBLY                                                                   
  CORRESPONDING RESIDUAL FORCE     -2.506E-12
 LARGEST INCREMENT OF DISP.         1.000E-05   AT NODE          1   DOF  2
   INSTANCE: CUBE_ASSEMBLY                                                                   
 LARGEST CORRECTION TO DISP.        2.225E-19   AT NODE          4   DOF  1
   INSTANCE: CUBE_ASSEMBLY                                                                   
          THE FORCE     EQUILIBRIUM RESPONSE WAS LINEAR IN THIS INCREMENT

 AVERAGE HEAT FLUX                  2.058E-25   TIME AVG. HEAT FLUX   1.000E-02
 LARGEST RESIDUAL HEAT FLUX        -4.536E-25   AT NODE          6   DOF 11
   INSTANCE: CUBE_ASSEMBLY                                                                   
 LARGEST INCREMENT OF TEMP.         2.312E-16   AT NODE          4   DOF 11
   INSTANCE: CUBE_ASSEMBLY                                                                   
 LARGEST CORRECTION TO TEMP.        5.168E-16   AT NODE          4   DOF 11
   INSTANCE: CUBE_ASSEMBLY                                                                   
          THERE IS ZERO HEAT FLUX EVERYWHERE
 

 ***WARNING: THERE IS ZERO HEAT FLUX EVERYWHERE IN THE MODEL BASED ON THE 
             DEFAULT CRITERION. PLEASE CHECK THE VALUE OF THE AVERAGE HEAT FLUX 
             DURING THE CURRENT ITERATION TO VERIFY THAT THE HEAT FLUX IS SMALL 
             ENOUGH TO BE TREATED AS ZERO. IF NOT, PLEASE USE THE SOLUTION 
             CONTROLS TO RESET THE CRITERION FOR ZERO HEAT FLUX.

 ITERATION SUMMARY FOR THE INCREMENT:   1 TOTAL ITERATIONS, OF WHICH
   0 ARE SEVERE DISCONTINUITY ITERATIONS AND  1 ARE EQUILIBRIUM ITERATIONS.

 TIME INCREMENT COMPLETED   1.00    ,  FRACTION OF STEP COMPLETED  0.940    
 STEP TIME COMPLETED        94.0    ,  TOTAL TIME COMPLETED         94.0    


  INCREMENT    95 STARTS. ATTEMPT NUMBER  1, TIME INCREMENT   1.00    
 
	UNSYMMETRIC NEW DIRECT SPARSE SOLVER RUNNING ON
 	1 HOST x 1 MPI RANK PER HOST x 1 THREAD PER RANK
        NUMBER OF EQUATIONS:  32
        NUMBER OF RHS:        1
        NUMBER OF FLOPS:      2.189e+04
        SOLVER ELAPSED TIME:  0ms

               CONVERGENCE CHECKS FOR EQUILIBRIUM ITERATION     1


 AVERAGE FORCE                      4.988E+04   TIME AVG. FORCE       2.520E+04
 LARGEST SCALED RESIDUAL FORCE      3.209E-12   AT NODE          2   DOF  3
   INSTANCE: CUBE_ASSEMBLY                                                                   
  CORRESPONDING RESIDUAL FORCE      3.209E-12
 LARGEST INCREMENT OF DISP.         1.000E-05   AT NODE          1   DOF  2
   INSTANCE: CUBE_ASSEMBLY                                                                   
 LARGEST CORRECTION TO DISP.        1.084E-19   AT NODE          1   DOF  2
   INSTANCE: CUBE_ASSEMBLY                                                                   
          THE FORCE     EQUILIBRIUM RESPONSE WAS LINEAR IN THIS INCREMENT

 AVERAGE HEAT FLUX                  2.595E-25   TIME AVG. HEAT FLUX   1.000E-02
 LARGEST RESIDUAL HEAT FLUX         5.075E-25   AT NODE          6   DOF 11
   INSTANCE: CUBE_ASSEMBLY                                                                   
 LARGEST INCREMENT OF TEMP.        -3.252E-16   AT NODE          6   DOF 11
   INSTANCE: CUBE_ASSEMBLY                                                                   
 LARGEST CORRECTION TO TEMP.       -4.756E-16   AT NODE          6   DOF 11
   INSTANCE: CUBE_ASSEMBLY                                                                   
          THERE IS ZERO HEAT FLUX EVERYWHERE
 

 ***WARNING: THERE IS ZERO HEAT FLUX EVERYWHERE IN THE MODEL BASED ON THE 
             DEFAULT CRITERION. PLEASE CHECK THE VALUE OF THE AVERAGE HEAT FLUX 
             DURING THE CURRENT ITERATION TO VERIFY THAT THE HEAT FLUX IS SMALL 
             ENOUGH TO BE TREATED AS ZERO. IF NOT, PLEASE USE THE SOLUTION 
             CONTROLS TO RESET THE CRITERION FOR ZERO HEAT FLUX.

 ITERATION SUMMARY FOR THE INCREMENT:   1 TOTAL ITERATIONS, OF WHICH
   0 ARE SEVERE DISCONTINUITY ITERATIONS AND  1 ARE EQUILIBRIUM ITERATIONS.

 TIME INCREMENT COMPLETED   1.00    ,  FRACTION OF STEP COMPLETED  0.950    
 STEP TIME COMPLETED        95.0    ,  TOTAL TIME COMPLETED         95.0    


  INCREMENT    96 STARTS. ATTEMPT NUMBER  1, TIME INCREMENT   1.00    
 
	UNSYMMETRIC NEW DIRECT SPARSE SOLVER RUNNING ON
 	1 HOST x 1 MPI RANK PER HOST x 1 THREAD PER RANK
        NUMBER OF EQUATIONS:  32
        NUMBER OF RHS:        1
        NUMBER OF FLOPS:      2.189e+04
        SOLVER ELAPSED TIME:  0ms

               CONVERGENCE CHECKS FOR EQUILIBRIUM ITERATION     1


 AVERAGE FORCE                      5.040E+04   TIME AVG. FORCE       2.546E+04
 LARGEST SCALED RESIDUAL FORCE      1.460E-12   AT NODE          1   DOF  3
   INSTANCE: CUBE_ASSEMBLY                                                                   
  CORRESPONDING RESIDUAL FORCE      1.460E-12
 LARGEST INCREMENT OF DISP.         1.000E-05   AT NODE          1   DOF  2
   INSTANCE: CUBE_ASSEMBLY                                                                   
 LARGEST CORRECTION TO DISP.       -1.440E-19   AT NODE          1   DOF  3
   INSTANCE: CUBE_ASSEMBLY                                                                   
          THE FORCE     EQUILIBRIUM RESPONSE WAS LINEAR IN THIS INCREMENT

 AVERAGE HEAT FLUX                  1.667E-25   TIME AVG. HEAT FLUX   1.000E-02
 LARGEST RESIDUAL HEAT FLUX         3.010E-25   AT NODE          4   DOF 11
   INSTANCE: CUBE_ASSEMBLY                                                                   
 LARGEST INCREMENT OF TEMP.         1.380E-16   AT NODE          6   DOF 11
   INSTANCE: CUBE_ASSEMBLY                                                                   
 LARGEST CORRECTION TO TEMP.        4.631E-16   AT NODE          6   DOF 11
   INSTANCE: CUBE_ASSEMBLY                                                                   
          THERE IS ZERO HEAT FLUX EVERYWHERE
 

 ***WARNING: THERE IS ZERO HEAT FLUX EVERYWHERE IN THE MODEL BASED ON THE 
             DEFAULT CRITERION. PLEASE CHECK THE VALUE OF THE AVERAGE HEAT FLUX 
             DURING THE CURRENT ITERATION TO VERIFY THAT THE HEAT FLUX IS SMALL 
             ENOUGH TO BE TREATED AS ZERO. IF NOT, PLEASE USE THE SOLUTION 
             CONTROLS TO RESET THE CRITERION FOR ZERO HEAT FLUX.

 ITERATION SUMMARY FOR THE INCREMENT:   1 TOTAL ITERATIONS, OF WHICH
   0 ARE SEVERE DISCONTINUITY ITERATIONS AND  1 ARE EQUILIBRIUM ITERATIONS.

 TIME INCREMENT COMPLETED   1.00    ,  FRACTION OF STEP COMPLETED  0.960    
 STEP TIME COMPLETED        96.0    ,  TOTAL TIME COMPLETED         96.0    


  INCREMENT    97 STARTS. ATTEMPT NUMBER  1, TIME INCREMENT   1.00    
 
	UNSYMMETRIC NEW DIRECT SPARSE SOLVER RUNNING ON
 	1 HOST x 1 MPI RANK PER HOST x 1 THREAD PER RANK
        NUMBER OF EQUATIONS:  32
        NUMBER OF RHS:        1
        NUMBER OF FLOPS:      2.189e+04
        SOLVER ELAPSED TIME:  0ms

               CONVERGENCE CHECKS FOR EQUILIBRIUM ITERATION     1


 AVERAGE FORCE                      5.093E+04   TIME AVG. FORCE       2.572E+04
 LARGEST SCALED RESIDUAL FORCE     -4.549E-12   AT NODE          1   DOF  3
   INSTANCE: CUBE_ASSEMBLY                                                                   
  CORRESPONDING RESIDUAL FORCE     -4.549E-12
 LARGEST INCREMENT OF DISP.         1.000E-05   AT NODE          1   DOF  2
   INSTANCE: CUBE_ASSEMBLY                                                                   
 LARGEST CORRECTION TO DISP.        1.713E-19   AT NODE          1   DOF  3
   INSTANCE: CUBE_ASSEMBLY                                                                   
          THE FORCE     EQUILIBRIUM RESPONSE WAS LINEAR IN THIS INCREMENT

 AVERAGE HEAT FLUX                  2.281E-25   TIME AVG. HEAT FLUX   1.000E-02
 LARGEST RESIDUAL HEAT FLUX         7.455E-25   AT NODE          6   DOF 11
   INSTANCE: CUBE_ASSEMBLY                                                                   
 LARGEST INCREMENT OF TEMP.         1.306E-16   AT NODE          4   DOF 11
   INSTANCE: CUBE_ASSEMBLY                                                                   
 LARGEST CORRECTION TO TEMP.       -2.481E-16   AT NODE          6   DOF 11
   INSTANCE: CUBE_ASSEMBLY                                                                   
          THERE IS ZERO HEAT FLUX EVERYWHERE
 

 ***WARNING: THERE IS ZERO HEAT FLUX EVERYWHERE IN THE MODEL BASED ON THE 
             DEFAULT CRITERION. PLEASE CHECK THE VALUE OF THE AVERAGE HEAT FLUX 
             DURING THE CURRENT ITERATION TO VERIFY THAT THE HEAT FLUX IS SMALL 
             ENOUGH TO BE TREATED AS ZERO. IF NOT, PLEASE USE THE SOLUTION 
             CONTROLS TO RESET THE CRITERION FOR ZERO HEAT FLUX.

 ITERATION SUMMARY FOR THE INCREMENT:   1 TOTAL ITERATIONS, OF WHICH
   0 ARE SEVERE DISCONTINUITY ITERATIONS AND  1 ARE EQUILIBRIUM ITERATIONS.

 TIME INCREMENT COMPLETED   1.00    ,  FRACTION OF STEP COMPLETED  0.970    
 STEP TIME COMPLETED        97.0    ,  TOTAL TIME COMPLETED         97.0    


  INCREMENT    98 STARTS. ATTEMPT NUMBER  1, TIME INCREMENT   1.00    
 
	UNSYMMETRIC NEW DIRECT SPARSE SOLVER RUNNING ON
 	1 HOST x 1 MPI RANK PER HOST x 1 THREAD PER RANK
        NUMBER OF EQUATIONS:  32
        NUMBER OF RHS:        1
        NUMBER OF FLOPS:      2.189e+04
        SOLVER ELAPSED TIME:  1ms

               CONVERGENCE CHECKS FOR EQUILIBRIUM ITERATION     1


 AVERAGE FORCE                      5.145E+04   TIME AVG. FORCE       2.598E+04
 LARGEST SCALED RESIDUAL FORCE      5.959E-12   AT NODE          6   DOF  3
   INSTANCE: CUBE_ASSEMBLY                                                                   
  CORRESPONDING RESIDUAL FORCE      5.959E-12
 LARGEST INCREMENT OF DISP.         1.000E-05   AT NODE          1   DOF  2
   INSTANCE: CUBE_ASSEMBLY                                                                   
 LARGEST CORRECTION TO DISP.       -3.488E-19   AT NODE          6   DOF  3
   INSTANCE: CUBE_ASSEMBLY                                                                   
          THE FORCE     EQUILIBRIUM RESPONSE WAS LINEAR IN THIS INCREMENT

 AVERAGE HEAT FLUX                  2.017E-25   TIME AVG. HEAT FLUX   1.000E-02
 LARGEST RESIDUAL HEAT FLUX         3.416E-25   AT NODE          4   DOF 11
   INSTANCE: CUBE_ASSEMBLY                                                                   
 LARGEST INCREMENT OF TEMP.        -2.773E-16   AT NODE          4   DOF 11
   INSTANCE: CUBE_ASSEMBLY                                                                   
 LARGEST CORRECTION TO TEMP.       -4.079E-16   AT NODE          4   DOF 11
   INSTANCE: CUBE_ASSEMBLY                                                                   
          THERE IS ZERO HEAT FLUX EVERYWHERE
 

 ***WARNING: THERE IS ZERO HEAT FLUX EVERYWHERE IN THE MODEL BASED ON THE 
             DEFAULT CRITERION. PLEASE CHECK THE VALUE OF THE AVERAGE HEAT FLUX 
             DURING THE CURRENT ITERATION TO VERIFY THAT THE HEAT FLUX IS SMALL 
             ENOUGH TO BE TREATED AS ZERO. IF NOT, PLEASE USE THE SOLUTION 
             CONTROLS TO RESET THE CRITERION FOR ZERO HEAT FLUX.

 ITERATION SUMMARY FOR THE INCREMENT:   1 TOTAL ITERATIONS, OF WHICH
   0 ARE SEVERE DISCONTINUITY ITERATIONS AND  1 ARE EQUILIBRIUM ITERATIONS.

 TIME INCREMENT COMPLETED   1.00    ,  FRACTION OF STEP COMPLETED  0.980    
 STEP TIME COMPLETED        98.0    ,  TOTAL TIME COMPLETED         98.0    


  INCREMENT    99 STARTS. ATTEMPT NUMBER  1, TIME INCREMENT   1.00    
 
	UNSYMMETRIC NEW DIRECT SPARSE SOLVER RUNNING ON
 	1 HOST x 1 MPI RANK PER HOST x 1 THREAD PER RANK
        NUMBER OF EQUATIONS:  32
        NUMBER OF RHS:        1
        NUMBER OF FLOPS:      2.189e+04
        SOLVER ELAPSED TIME:  0ms

               CONVERGENCE CHECKS FOR EQUILIBRIUM ITERATION     1


 AVERAGE FORCE                      5.198E+04   TIME AVG. FORCE       2.625E+04
 LARGEST SCALED RESIDUAL FORCE     -2.450E-12   AT NODE          2   DOF  3
   INSTANCE: CUBE_ASSEMBLY                                                                   
  CORRESPONDING RESIDUAL FORCE     -2.450E-12
 LARGEST INCREMENT OF DISP.         1.000E-05   AT NODE          1   DOF  2
   INSTANCE: CUBE_ASSEMBLY                                                                   
 LARGEST CORRECTION TO DISP.        3.964E-19   AT NODE          6   DOF  3
   INSTANCE: CUBE_ASSEMBLY                                                                   
          THE FORCE     EQUILIBRIUM RESPONSE WAS LINEAR IN THIS INCREMENT

 AVERAGE HEAT FLUX                  3.084E-25   TIME AVG. HEAT FLUX   1.000E-02
 LARGEST RESIDUAL HEAT FLUX        -8.045E-25   AT NODE          6   DOF 11
   INSTANCE: CUBE_ASSEMBLY                                                                   
 LARGEST INCREMENT OF TEMP.         1.194E-16   AT NODE          6   DOF 11
   INSTANCE: CUBE_ASSEMBLY                                                                   
 LARGEST CORRECTION TO TEMP.        2.584E-16   AT NODE          4   DOF 11
   INSTANCE: CUBE_ASSEMBLY                                                                   
          THERE IS ZERO HEAT FLUX EVERYWHERE
 

 ***WARNING: THERE IS ZERO HEAT FLUX EVERYWHERE IN THE MODEL BASED ON THE 
             DEFAULT CRITERION. PLEASE CHECK THE VALUE OF THE AVERAGE HEAT FLUX 
             DURING THE CURRENT ITERATION TO VERIFY THAT THE HEAT FLUX IS SMALL 
             ENOUGH TO BE TREATED AS ZERO. IF NOT, PLEASE USE THE SOLUTION 
             CONTROLS TO RESET THE CRITERION FOR ZERO HEAT FLUX.

 ITERATION SUMMARY FOR THE INCREMENT:   1 TOTAL ITERATIONS, OF WHICH
   0 ARE SEVERE DISCONTINUITY ITERATIONS AND  1 ARE EQUILIBRIUM ITERATIONS.

 TIME INCREMENT COMPLETED   1.00    ,  FRACTION OF STEP COMPLETED  0.990    
 STEP TIME COMPLETED        99.0    ,  TOTAL TIME COMPLETED         99.0    


  INCREMENT   100 STARTS. ATTEMPT NUMBER  1, TIME INCREMENT   1.00    
 
	UNSYMMETRIC NEW DIRECT SPARSE SOLVER RUNNING ON
 	1 HOST x 1 MPI RANK PER HOST x 1 THREAD PER RANK
        NUMBER OF EQUATIONS:  32
        NUMBER OF RHS:        1
        NUMBER OF FLOPS:      2.189e+04
        SOLVER ELAPSED TIME:  0ms

               CONVERGENCE CHECKS FOR EQUILIBRIUM ITERATION     1


 AVERAGE FORCE                      5.250E+04   TIME AVG. FORCE       2.651E+04
 LARGEST SCALED RESIDUAL FORCE     -3.056E-12   AT NODE          1   DOF  3
   INSTANCE: CUBE_ASSEMBLY                                                                   
  CORRESPONDING RESIDUAL FORCE     -3.056E-12
 LARGEST INCREMENT OF DISP.         1.000E-05   AT NODE          1   DOF  2
   INSTANCE: CUBE_ASSEMBLY                                                                   
 LARGEST CORRECTION TO DISP.       -1.471E-19   AT NODE          6   DOF  3
   INSTANCE: CUBE_ASSEMBLY                                                                   
          THE FORCE     EQUILIBRIUM RESPONSE WAS LINEAR IN THIS INCREMENT

 AVERAGE HEAT FLUX                  2.336E-25   TIME AVG. HEAT FLUX   1.000E-02
 LARGEST RESIDUAL HEAT FLUX         4.641E-25   AT NODE          6   DOF 11
   INSTANCE: CUBE_ASSEMBLY                                                                   
 LARGEST INCREMENT OF TEMP.        -3.474E-16   AT NODE          6   DOF 11
   INSTANCE: CUBE_ASSEMBLY                                                                   
 LARGEST CORRECTION TO TEMP.       -4.668E-16   AT NODE          6   DOF 11
   INSTANCE: CUBE_ASSEMBLY                                                                   
          THERE IS ZERO HEAT FLUX EVERYWHERE
 

 ***WARNING: THERE IS ZERO HEAT FLUX EVERYWHERE IN THE MODEL BASED ON THE 
             DEFAULT CRITERION. PLEASE CHECK THE VALUE OF THE AVERAGE HEAT FLUX 
             DURING THE CURRENT ITERATION TO VERIFY THAT THE HEAT FLUX IS SMALL 
             ENOUGH TO BE TREATED AS ZERO. IF NOT, PLEASE USE THE SOLUTION 
             CONTROLS TO RESET THE CRITERION FOR ZERO HEAT FLUX.

 ITERATION SUMMARY FOR THE INCREMENT:   1 TOTAL ITERATIONS, OF WHICH
   0 ARE SEVERE DISCONTINUITY ITERATIONS AND  1 ARE EQUILIBRIUM ITERATIONS.

 TIME INCREMENT COMPLETED   1.00    ,  FRACTION OF STEP COMPLETED   1.00    
 STEP TIME COMPLETED        100.    ,  TOTAL TIME COMPLETED         100.    


          THE ANALYSIS HAS BEEN COMPLETED



     ANALYSIS SUMMARY:
     TOTAL OF        100  INCREMENTS
                       0  CUTBACKS IN AUTOMATIC INCREMENTATION
                     100  ITERATIONS INCLUDING CONTACT ITERATIONS IF PRESENT
                     100  PASSES THROUGH THE EQUATION SOLVER OF WHICH 
                       1  INVOLVE MATRIX DECOMPOSITION, INCLUDING
                       0  DECOMPOSITION(S) OF THE MASS MATRIX
                       1  REORDERING OF EQUATIONS TO MINIMIZE WAVEFRONT
                       0  ADDITIONAL RESIDUAL EVALUATIONS FOR LINE SEARCHES
                       0  ADDITIONAL OPERATOR EVALUATIONS FOR LINE SEARCHES
                       3  WARNING MESSAGES DURING USER INPUT PROCESSING
                     100  WARNING MESSAGES DURING ANALYSIS
                       0  ANALYSIS WARNINGS ARE NUMERICAL PROBLEM MESSAGES
                       0  ANALYSIS WARNINGS ARE NEGATIVE EIGENVALUE MESSAGES
                       0  ERROR MESSAGES



     JOB TIME SUMMARY
       USER TIME (SEC)      =     0.70    
       SYSTEM TIME (SEC)    =     0.30    
       TOTAL CPU TIME (SEC) =      1.0    
       WALLCLOCK TIME (SEC) =            2
       MEMORY PEAK (GB)     =            0
