1

   Abaqus 2023.HF4                                  Date 02-Apr-2025   Time 16:27:51
   For use by AALTO UNIVERSITY under license from Dassault Systemes or its subsidiary.

                                                                                 
                                                                                 
 STEP    1     INCREMENT     1     STEP TIME    0.00    


                        S T E P       1     C O U P L E D - T E M P E R A T U R E - D I S P L A C E M E N T   A N A L Y S I S


                                                                                          

     AUTOMATIC TIME CONTROL WITH -
          A SUGGESTED INITIAL TIME INCREMENT OF                 1.00    
          AND A TOTAL TIME PERIOD OF                            100.    
          THE MINIMUM TIME INCREMENT ALLOWED IS                1.000E-03
          THE MAXIMUM TIME INCREMENT ALLOWED IS                 1.00    

          CREEP AND SWELLING EFFECTS ARE OMITTED IN THIS STEP

     THE SIZE OF THE TIME INCREMENT IS CONTROLLED BY -
          THE TEMPERATURE CHANGE PER INCREMENT NOT EXCEEDING            100.    
          THE RATE DEPENDENCY WILL BE CONSIDERED IN THIS STEP

          CREEP AND SWELLING EFFECTS WILL BE IGNORED.

 CONVERGENCE TOLERANCE PARAMETERS FOR FORCE    
     CRITERION FOR RESIDUAL FORCE     FOR A NONLINEAR PROBLEM          5.000E-03
     CRITERION FOR DISP.    CORRECTION IN A NONLINEAR PROBLEM          1.000E-02
     INITIAL VALUE OF TIME AVERAGE FORCE                               1.000E-02
     AVERAGE FORCE     IS TIME AVERAGE FORCE    
     ALTERNATE CRIT. FOR RESIDUAL FORCE     FOR A NONLINEAR PROBLEM    2.000E-02
     CRITERION FOR ZERO FORCE     RELATIVE TO TIME AVRG. FORCE         1.000E-05
     CRITERION FOR RESIDUAL FORCE     WHEN THERE IS ZERO FLUX          1.000E-05
     CRITERION FOR DISP.    CORRECTION WHEN THERE IS ZERO FLUX         1.000E-03
     CRITERION FOR RESIDUAL FORCE     FOR A LINEAR INCREMENT           1.000E-08
     FIELD CONVERSION RATIO                                             1.00    
     CRITERION FOR ZERO FORCE     REL. TO TIME AVRG. MAX. FORCE        1.000E-05
     CRITERION FOR ZERO DISP.    RELATIVE TO CHARACTERISTIC LENGTH     1.000E-08

 CONVERGENCE TOLERANCE PARAMETERS FOR HEAT FLUX
     CRITERION FOR RESIDUAL HEAT FLUX FOR A NONLINEAR PROBLEM          5.000E-03
     CRITERION FOR TEMP.    CORRECTION IN A NONLINEAR PROBLEM          1.000E-02
     INITIAL VALUE OF TIME AVERAGE HEAT FLUX                           1.000E-02
     AVERAGE HEAT FLUX IS TIME AVERAGE HEAT FLUX
     ALTERNATE CRIT. FOR RESIDUAL HEAT FLUX FOR A NONLINEAR PROBLEM    2.000E-02
     CRITERION FOR ZERO HEAT FLUX RELATIVE TO TIME AVRG. HEAT FLUX     1.000E-05
     CRITERION FOR RESIDUAL HEAT FLUX WHEN THERE IS ZERO FLUX          1.000E-05
     CRITERION FOR TEMP.    CORRECTION WHEN THERE IS ZERO FLUX         1.000E-03
     CRITERION FOR RESIDUAL HEAT FLUX FOR A LINEAR INCREMENT           1.000E-08
     FIELD CONVERSION RATIO                                             1.00    
     CRITERION FOR ZERO HEAT FLUX REL. TO TIME AVRG. MAX. HEAT FLUX    1.000E-05

     VOLUMETRIC STRAIN COMPATIBILITY TOLERANCE FOR HYBRID SOLIDS       1.000E-05
     AXIAL STRAIN COMPATIBILITY TOLERANCE FOR HYBRID BEAMS             1.000E-05
     TRANS. SHEAR STRAIN COMPATIBILITY TOLERANCE FOR HYBRID BEAMS      1.000E-05
     SOFT CONTACT CONSTRAINT COMPATIBILITY TOLERANCE FOR P>P0          5.000E-03
     SOFT CONTACT CONSTRAINT COMPATIBILITY TOLERANCE FOR P=0.0         0.100    
     CONTACT FORCE ERROR TOLERANCE FOR CONVERT SDI=YES                 1.00    
     DISPLACEMENT COMPATIBILITY TOLERANCE FOR DCOUP ELEMENTS           1.000E-05
     ROTATION COMPATIBILITY TOLERANCE FOR DCOUP ELEMENTS               1.000E-05

 EQUILIBRIUM WILL BE CHECKED FOR SEVERE DISCONTINUITY ITERATIONS

 TIME INCREMENTATION CONTROL PARAMETERS:
     FIRST EQUILIBRIUM ITERATION FOR CONSECUTIVE DIVERGENCE CHECK              4
     EQUILIBRIUM ITERATION AT WHICH LOG. CONVERGENCE RATE CHECK BEGINS         8
     EQUILIBRIUM ITERATION AFTER WHICH ALTERNATE RESIDUAL IS USED              9
     MAXIMUM EQUILIBRIUM ITERATIONS ALLOWED                                   16
     EQUILIBRIUM ITERATION COUNT FOR CUT-BACK IN NEXT INCREMENT               10
     MAXIMUM EQUILIB. ITERS IN TWO INCREMENTS FOR TIME INCREMENT INCREASE      4
     MAXIMUM ITERATIONS FOR SEVERE DISCONTINUITIES                            50
     MAXIMUM ATTEMPTS ALLOWED IN AN INCREMENT                                  5
     MAXIMUM DISCON. ITERS IN TWO INCREMENTS FOR TIME INCREMENT INCREASE      50
     MAXIMUM CONTACT AUGMENTATIONS FOR *SURFACE BEHAVIOR,AUGMENTED LAGRANGE   50
     CONSECUTIVE INCS MEETING TIME INTEG. TOL. FOR TIME INC. INCREASE          3
     CUT-BACK FACTOR AFTER DIVERGENCE                                 0.2500    
     CUT-BACK FACTOR FOR TOO SLOW CONVERGENCE                         0.5000    
     CUT-BACK FACTOR AFTER TOO MANY EQUILIBRIUM ITERATIONS            0.7500    
     CUT-BACK FACTOR AFTER TOO MANY SEVERE DISCONTINUITY ITERATIONS   0.2500    
     CUT-BACK FACTOR AFTER PROBLEMS IN ELEMENT ASSEMBLY               0.2500    
     INCREASE FACTOR AFTER TWO INCREMENTS THAT CONVERGE QUICKLY        1.500    
     MAX. TIME INCREMENT INCREASE FACTOR ALLOWED                       1.500    
     MAX. TIME INCREMENT INCREASE FACTOR ALLOWED (DYNAMICS)            1.250    
     MAX. TIME INCREMENT INCREASE FACTOR ALLOWED (DIFFUSION)           2.000    
     MINIMUM TIME INCREMENT RATIO FOR EXTRAPOLATION TO OCCUR          0.1000    
     CUT-BACK FACTOR WHEN TIME INTEGRATION ACCURACY TOL. EXCEEDED     0.8500    
     MAX. RATIO OF TIME INTEG. MEASURE TO TOL. FOR TIME INC. INCREASE 0.7500    
     INCREASE FACTOR FOR TIME INCREMENT WHEN POSSIBLE                 0.8000    
     MIN. TIME INC. INCREASE FACTOR IN LINEAR TRANSIENT PROBLEMS      0.9500    
     MAX. RATIO OF TIME INCREMENT TO STABILITY LIMIT                   1.000    
     FRACTION OF STABILITY LIMIT FOR NEW TIME INCREMENT               0.9500    
     TIME INCREMENT INCREASE FACTOR BEFORE A TIME POINT                1.000    
     GLOBAL STABILIZATION CONTROL IS NOT USED

          PRINT OF INCREMENT NUMBER, TIME, ETC., EVERY    1  INCREMENTS

     THE MAXIMUM NUMBER OF INCREMENTS IN THIS STEP IS                   10000

          LARGE DISPLACEMENT THEORY WILL BE USED

          UNSYMMETRIC MATRIX STORAGE AND SOLUTION WILL BE USED

     LINEAR EXTRAPOLATION WILL BE USED

     CHARACTERISTIC ELEMENT LENGTH     1.000E-03

     DETAILS REGARDING ACTUAL SOLUTION WAVEFRONT REQUESTED

     DETAILED OUTPUT OF DIAGNOSTICS TO DATABASE REQUESTED

     PRINT OF INCREMENT NUMBER, TIME, ETC., TO THE MESSAGE FILE EVERY     1  INCREMENTS

     COLLECTING MODEL CONSTRAINT INFORMATION FOR OVERCONSTRAINT CHECKS

     COLLECTING STEP CONSTRAINT INFORMATION FOR OVERCONSTRAINT CHECKS


  INCREMENT     1 STARTS. ATTEMPT NUMBER  1, TIME INCREMENT   1.00    
 
	UNSYMMETRIC NEW DIRECT SPARSE SOLVER RUNNING ON
 	1 HOST x 1 MPI RANK PER HOST x 1 THREAD PER RANK
        NUMBER OF EQUATIONS:  32
        NUMBER OF RHS:        1
        NUMBER OF FLOPS:      2.189e+04
        SOLVER ELAPSED TIME:  6ms

               CONVERGENCE CHECKS FOR EQUILIBRIUM ITERATION     1


 AVERAGE FORCE                       174.       TIME AVG. FORCE        174.    
 LARGEST SCALED RESIDUAL FORCE       1.97       AT NODE          1   DOF  1
   INSTANCE: CUBE_ASSEMBLY                                                                   
  CORRESPONDING RESIDUAL FORCE       1.97    
 LARGEST INCREMENT OF DISP.         1.000E-05   AT NODE          1   DOF  2
   INSTANCE: CUBE_ASSEMBLY                                                                   
 LARGEST CORRECTION TO DISP.        1.000E-05   AT NODE          1   DOF  2
   INSTANCE: CUBE_ASSEMBLY                                                                   
          FORCE     EQUILIBRIUM NOT ACHIEVED WITHIN TOLERANCE.

 AVERAGE HEAT FLUX                  1.725E-04   TIME AVG. HEAT FLUX   1.725E-04
 LARGEST RESIDUAL HEAT FLUX         4.779E-05   AT NODE          6   DOF 11
   INSTANCE: CUBE_ASSEMBLY                                                                   
 LARGEST INCREMENT OF TEMP.         0.629       AT NODE          2   DOF 11
   INSTANCE: CUBE_ASSEMBLY                                                                   
 LARGEST CORRECTION TO TEMP.        0.629       AT NODE          2   DOF 11
   INSTANCE: CUBE_ASSEMBLY                                                                   
          HEAT FLUX EQUILIBRIUM NOT ACHIEVED WITHIN TOLERANCE.
 
	UNSYMMETRIC NEW DIRECT SPARSE SOLVER RUNNING ON
 	1 HOST x 1 MPI RANK PER HOST x 1 THREAD PER RANK
        NUMBER OF EQUATIONS:  32
        NUMBER OF RHS:        1
        NUMBER OF FLOPS:      2.189e+04
        SOLVER ELAPSED TIME:  1ms

               CONVERGENCE CHECKS FOR EQUILIBRIUM ITERATION     2


 AVERAGE FORCE                       173.       TIME AVG. FORCE        173.    
 LARGEST SCALED RESIDUAL FORCE      1.915E-05   AT NODE          4   DOF  1
   INSTANCE: CUBE_ASSEMBLY                                                                   
  CORRESPONDING RESIDUAL FORCE      1.915E-05
 LARGEST INCREMENT OF DISP.         1.000E-05   AT NODE          1   DOF  2
   INSTANCE: CUBE_ASSEMBLY                                                                   
 LARGEST CORRECTION TO DISP.        1.935E-08   AT NODE          5   DOF  3
   INSTANCE: CUBE_ASSEMBLY                                                                   
          THE FORCE     EQUILIBRIUM EQUATIONS HAVE CONVERGED

 AVERAGE HEAT FLUX                  1.585E-04   TIME AVG. HEAT FLUX   1.585E-04
 LARGEST RESIDUAL HEAT FLUX         1.004E-05   AT NODE          2   DOF 11
   INSTANCE: CUBE_ASSEMBLY                                                                   
 LARGEST INCREMENT OF TEMP.         0.749       AT NODE          4   DOF 11
   INSTANCE: CUBE_ASSEMBLY                                                                   
 LARGEST CORRECTION TO TEMP.        0.120       AT NODE          6   DOF 11
   INSTANCE: CUBE_ASSEMBLY                                                                   
          HEAT FLUX EQUILIBRIUM NOT ACHIEVED WITHIN TOLERANCE.
 
	UNSYMMETRIC NEW DIRECT SPARSE SOLVER RUNNING ON
 	1 HOST x 1 MPI RANK PER HOST x 1 THREAD PER RANK
        NUMBER OF EQUATIONS:  32
        NUMBER OF RHS:        1
        NUMBER OF FLOPS:      2.189e+04
        SOLVER ELAPSED TIME:  1ms

               CONVERGENCE CHECKS FOR EQUILIBRIUM ITERATION     3


 AVERAGE FORCE                       173.       TIME AVG. FORCE        173.    
 LARGEST SCALED RESIDUAL FORCE     -2.343E-11   AT NODE          2   DOF  1
   INSTANCE: CUBE_ASSEMBLY                                                                   
  CORRESPONDING RESIDUAL FORCE     -2.343E-11
 LARGEST INCREMENT OF DISP.         1.000E-05   AT NODE          1   DOF  2
   INSTANCE: CUBE_ASSEMBLY                                                                   
 LARGEST CORRECTION TO DISP.        1.878E-13   AT NODE          4   DOF  1
   INSTANCE: CUBE_ASSEMBLY                                                                   
          THE FORCE     EQUILIBRIUM EQUATIONS HAVE CONVERGED

 AVERAGE HEAT FLUX                  1.556E-04   TIME AVG. HEAT FLUX   1.556E-04
 LARGEST RESIDUAL HEAT FLUX         2.108E-06   AT NODE          4   DOF 11
   INSTANCE: CUBE_ASSEMBLY                                                                   
 LARGEST INCREMENT OF TEMP.         0.774       AT NODE          2   DOF 11
   INSTANCE: CUBE_ASSEMBLY                                                                   
 LARGEST CORRECTION TO TEMP.        2.515E-02   AT NODE          2   DOF 11
   INSTANCE: CUBE_ASSEMBLY                                                                   
          HEAT FLUX EQUILIBRIUM NOT ACHIEVED WITHIN TOLERANCE.
 
	UNSYMMETRIC NEW DIRECT SPARSE SOLVER RUNNING ON
 	1 HOST x 1 MPI RANK PER HOST x 1 THREAD PER RANK
        NUMBER OF EQUATIONS:  32
        NUMBER OF RHS:        1
        NUMBER OF FLOPS:      2.189e+04
        SOLVER ELAPSED TIME:  1ms

               CONVERGENCE CHECKS FOR EQUILIBRIUM ITERATION     4


 AVERAGE FORCE                       173.       TIME AVG. FORCE        173.    
 LARGEST SCALED RESIDUAL FORCE     -1.362E-11   AT NODE          3   DOF  1
   INSTANCE: CUBE_ASSEMBLY                                                                   
  CORRESPONDING RESIDUAL FORCE     -1.362E-11
 LARGEST INCREMENT OF DISP.         1.000E-05   AT NODE          1   DOF  2
   INSTANCE: CUBE_ASSEMBLY                                                                   
 LARGEST CORRECTION TO DISP.       -6.040E-19   AT NODE          2   DOF  1
   INSTANCE: CUBE_ASSEMBLY                                                                   
          THE FORCE     EQUILIBRIUM EQUATIONS HAVE CONVERGED

 AVERAGE HEAT FLUX                  1.549E-04   TIME AVG. HEAT FLUX   1.549E-04
 LARGEST RESIDUAL HEAT FLUX         4.428E-07   AT NODE          2   DOF 11
   INSTANCE: CUBE_ASSEMBLY                                                                   
 LARGEST INCREMENT OF TEMP.         0.779       AT NODE          4   DOF 11
   INSTANCE: CUBE_ASSEMBLY                                                                   
 LARGEST CORRECTION TO TEMP.        5.283E-03   AT NODE          4   DOF 11
   INSTANCE: CUBE_ASSEMBLY                                                                   
          THE HEAT FLUX EQUILIBRIUM EQUATIONS HAVE CONVERGED

 MAXIMUM NON-PRESCRIBED INCREMENT IN TEMPERATURE IS   0.779    

 ITERATION SUMMARY FOR THE INCREMENT:   4 TOTAL ITERATIONS, OF WHICH
   0 ARE SEVERE DISCONTINUITY ITERATIONS AND  4 ARE EQUILIBRIUM ITERATIONS.

 TIME INCREMENT COMPLETED   1.00    ,  FRACTION OF STEP COMPLETED  1.000E-02
 STEP TIME COMPLETED        1.00    ,  TOTAL TIME COMPLETED         1.00    


  INCREMENT     2 STARTS. ATTEMPT NUMBER  1, TIME INCREMENT   1.00    
 
	UNSYMMETRIC NEW DIRECT SPARSE SOLVER RUNNING ON
 	1 HOST x 1 MPI RANK PER HOST x 1 THREAD PER RANK
        NUMBER OF EQUATIONS:  32
        NUMBER OF RHS:        1
        NUMBER OF FLOPS:      2.189e+04
        SOLVER ELAPSED TIME:  1ms

               CONVERGENCE CHECKS FOR EQUILIBRIUM ITERATION     1


 AVERAGE FORCE                      1.027E+03   TIME AVG. FORCE        600.    
 LARGEST SCALED RESIDUAL FORCE      7.527E-05   AT NODE          1   DOF  1
   INSTANCE: CUBE_ASSEMBLY                                                                   
  CORRESPONDING RESIDUAL FORCE      7.527E-05
 LARGEST INCREMENT OF DISP.         1.000E-05   AT NODE          1   DOF  2
   INSTANCE: CUBE_ASSEMBLY                                                                   
 LARGEST CORRECTION TO DISP.        3.812E-08   AT NODE          2   DOF  3
   INSTANCE: CUBE_ASSEMBLY                                                                   
          THE FORCE     EQUILIBRIUM EQUATIONS HAVE CONVERGED

 AVERAGE HEAT FLUX                  1.520E-04   TIME AVG. HEAT FLUX   1.535E-04
 LARGEST RESIDUAL HEAT FLUX        -1.308E-06   AT NODE          4   DOF 11
   INSTANCE: CUBE_ASSEMBLY                                                                   
 LARGEST INCREMENT OF TEMP.         0.764       AT NODE          6   DOF 11
   INSTANCE: CUBE_ASSEMBLY                                                                   
 LARGEST CORRECTION TO TEMP.       -1.554E-02   AT NODE          4   DOF 11
   INSTANCE: CUBE_ASSEMBLY                                                                   
          HEAT FLUX EQUILIBRIUM NOT ACHIEVED WITHIN TOLERANCE.
 
	UNSYMMETRIC NEW DIRECT SPARSE SOLVER RUNNING ON
 	1 HOST x 1 MPI RANK PER HOST x 1 THREAD PER RANK
        NUMBER OF EQUATIONS:  32
        NUMBER OF RHS:        1
        NUMBER OF FLOPS:      2.189e+04
        SOLVER ELAPSED TIME:  1ms

               CONVERGENCE CHECKS FOR EQUILIBRIUM ITERATION     2


 AVERAGE FORCE                      1.027E+03   TIME AVG. FORCE        600.    
 LARGEST SCALED RESIDUAL FORCE      1.760E-11   AT NODE          1   DOF  3
   INSTANCE: CUBE_ASSEMBLY                                                                   
  CORRESPONDING RESIDUAL FORCE      1.760E-11
 LARGEST INCREMENT OF DISP.         1.000E-05   AT NODE          1   DOF  2
   INSTANCE: CUBE_ASSEMBLY                                                                   
 LARGEST CORRECTION TO DISP.        7.309E-13   AT NODE          2   DOF  1
   INSTANCE: CUBE_ASSEMBLY                                                                   
          THE FORCE     EQUILIBRIUM EQUATIONS HAVE CONVERGED

 AVERAGE HEAT FLUX                  1.514E-04   TIME AVG. HEAT FLUX   1.531E-04
 LARGEST RESIDUAL HEAT FLUX        -2.746E-07   AT NODE          6   DOF 11
   INSTANCE: CUBE_ASSEMBLY                                                                   
 LARGEST INCREMENT OF TEMP.         0.760       AT NODE          6   DOF 11
   INSTANCE: CUBE_ASSEMBLY                                                                   
 LARGEST CORRECTION TO TEMP.       -3.264E-03   AT NODE          4   DOF 11
   INSTANCE: CUBE_ASSEMBLY                                                                   
          THE HEAT FLUX EQUILIBRIUM EQUATIONS HAVE CONVERGED

 MAXIMUM NON-PRESCRIBED INCREMENT IN TEMPERATURE IS   0.760    

 ITERATION SUMMARY FOR THE INCREMENT:   2 TOTAL ITERATIONS, OF WHICH
   0 ARE SEVERE DISCONTINUITY ITERATIONS AND  2 ARE EQUILIBRIUM ITERATIONS.

 TIME INCREMENT COMPLETED   1.00    ,  FRACTION OF STEP COMPLETED  2.000E-02
 STEP TIME COMPLETED        2.00    ,  TOTAL TIME COMPLETED         2.00    


  INCREMENT     3 STARTS. ATTEMPT NUMBER  1, TIME INCREMENT   1.00    
 
	UNSYMMETRIC NEW DIRECT SPARSE SOLVER RUNNING ON
 	1 HOST x 1 MPI RANK PER HOST x 1 THREAD PER RANK
        NUMBER OF EQUATIONS:  32
        NUMBER OF RHS:        1
        NUMBER OF FLOPS:      2.189e+04
        SOLVER ELAPSED TIME:  1ms

               CONVERGENCE CHECKS FOR EQUILIBRIUM ITERATION     1


 AVERAGE FORCE                      1.525E+03   TIME AVG. FORCE        908.    
 LARGEST SCALED RESIDUAL FORCE      7.285E-05   AT NODE          5   DOF  3
   INSTANCE: CUBE_ASSEMBLY                                                                   
  CORRESPONDING RESIDUAL FORCE      7.285E-05
 LARGEST INCREMENT OF DISP.         1.000E-05   AT NODE          1   DOF  2
   INSTANCE: CUBE_ASSEMBLY                                                                   
 LARGEST CORRECTION TO DISP.        3.727E-08   AT NODE          1   DOF  3
   INSTANCE: CUBE_ASSEMBLY                                                                   
          THE FORCE     EQUILIBRIUM EQUATIONS HAVE CONVERGED

 AVERAGE HEAT FLUX                  1.486E-04   TIME AVG. HEAT FLUX   1.516E-04
 LARGEST RESIDUAL HEAT FLUX        -1.411E-06   AT NODE          4   DOF 11
   INSTANCE: CUBE_ASSEMBLY                                                                   
 LARGEST INCREMENT OF TEMP.         0.744       AT NODE          8   DOF 11
   INSTANCE: CUBE_ASSEMBLY                                                                   
 LARGEST CORRECTION TO TEMP.       -1.670E-02   AT NODE          6   DOF 11
   INSTANCE: CUBE_ASSEMBLY                                                                   
          HEAT FLUX EQUILIBRIUM NOT ACHIEVED WITHIN TOLERANCE.
 
	UNSYMMETRIC NEW DIRECT SPARSE SOLVER RUNNING ON
 	1 HOST x 1 MPI RANK PER HOST x 1 THREAD PER RANK
        NUMBER OF EQUATIONS:  32
        NUMBER OF RHS:        1
        NUMBER OF FLOPS:      2.189e+04
        SOLVER ELAPSED TIME:  1ms

               CONVERGENCE CHECKS FOR EQUILIBRIUM ITERATION     2


 AVERAGE FORCE                      1.525E+03   TIME AVG. FORCE        908.    
 LARGEST SCALED RESIDUAL FORCE      8.393E-11   AT NODE          4   DOF  1
   INSTANCE: CUBE_ASSEMBLY                                                                   
  CORRESPONDING RESIDUAL FORCE      8.393E-11
 LARGEST INCREMENT OF DISP.         1.000E-05   AT NODE          1   DOF  2
   INSTANCE: CUBE_ASSEMBLY                                                                   
 LARGEST CORRECTION TO DISP.        7.006E-13   AT NODE          1   DOF  3
   INSTANCE: CUBE_ASSEMBLY                                                                   
          THE FORCE     EQUILIBRIUM EQUATIONS HAVE CONVERGED

 AVERAGE HEAT FLUX                  1.479E-04   TIME AVG. HEAT FLUX   1.514E-04
 LARGEST RESIDUAL HEAT FLUX        -2.963E-07   AT NODE          6   DOF 11
   INSTANCE: CUBE_ASSEMBLY                                                                   
 LARGEST INCREMENT OF TEMP.         0.740       AT NODE          8   DOF 11
   INSTANCE: CUBE_ASSEMBLY                                                                   
 LARGEST CORRECTION TO TEMP.       -3.508E-03   AT NODE          4   DOF 11
   INSTANCE: CUBE_ASSEMBLY                                                                   
          THE HEAT FLUX EQUILIBRIUM EQUATIONS HAVE CONVERGED

 MAXIMUM NON-PRESCRIBED INCREMENT IN TEMPERATURE IS   0.740    

 ITERATION SUMMARY FOR THE INCREMENT:   2 TOTAL ITERATIONS, OF WHICH
   0 ARE SEVERE DISCONTINUITY ITERATIONS AND  2 ARE EQUILIBRIUM ITERATIONS.

 TIME INCREMENT COMPLETED   1.00    ,  FRACTION OF STEP COMPLETED  3.000E-02
 STEP TIME COMPLETED        3.00    ,  TOTAL TIME COMPLETED         3.00    


  INCREMENT     4 STARTS. ATTEMPT NUMBER  1, TIME INCREMENT   1.00    
 
	UNSYMMETRIC NEW DIRECT SPARSE SOLVER RUNNING ON
 	1 HOST x 1 MPI RANK PER HOST x 1 THREAD PER RANK
        NUMBER OF EQUATIONS:  32
        NUMBER OF RHS:        1
        NUMBER OF FLOPS:      2.189e+04
        SOLVER ELAPSED TIME:  0ms

               CONVERGENCE CHECKS FOR EQUILIBRIUM ITERATION     1


 AVERAGE FORCE                      2.011E+03   TIME AVG. FORCE       1.184E+03
 LARGEST SCALED RESIDUAL FORCE      7.053E-05   AT NODE          1   DOF  1
   INSTANCE: CUBE_ASSEMBLY                                                                   
  CORRESPONDING RESIDUAL FORCE      7.053E-05
 LARGEST INCREMENT OF DISP.         1.000E-05   AT NODE          1   DOF  2
   INSTANCE: CUBE_ASSEMBLY                                                                   
 LARGEST CORRECTION TO DISP.        3.644E-08   AT NODE          2   DOF  3
   INSTANCE: CUBE_ASSEMBLY                                                                   
          THE FORCE     EQUILIBRIUM EQUATIONS HAVE CONVERGED

 AVERAGE HEAT FLUX                  1.452E-04   TIME AVG. HEAT FLUX   1.499E-04
 LARGEST RESIDUAL HEAT FLUX        -1.368E-06   AT NODE          4   DOF 11
   INSTANCE: CUBE_ASSEMBLY                                                                   
 LARGEST INCREMENT OF TEMP.         0.724       AT NODE          2   DOF 11
   INSTANCE: CUBE_ASSEMBLY                                                                   
 LARGEST CORRECTION TO TEMP.       -1.614E-02   AT NODE          8   DOF 11
   INSTANCE: CUBE_ASSEMBLY                                                                   
          HEAT FLUX EQUILIBRIUM NOT ACHIEVED WITHIN TOLERANCE.
 
	UNSYMMETRIC NEW DIRECT SPARSE SOLVER RUNNING ON
 	1 HOST x 1 MPI RANK PER HOST x 1 THREAD PER RANK
        NUMBER OF EQUATIONS:  32
        NUMBER OF RHS:        1
        NUMBER OF FLOPS:      2.189e+04
        SOLVER ELAPSED TIME:  1ms

               CONVERGENCE CHECKS FOR EQUILIBRIUM ITERATION     2


 AVERAGE FORCE                      2.011E+03   TIME AVG. FORCE       1.184E+03
 LARGEST SCALED RESIDUAL FORCE      2.268E-11   AT NODE          1   DOF  1
   INSTANCE: CUBE_ASSEMBLY                                                                   
  CORRESPONDING RESIDUAL FORCE      2.268E-11
 LARGEST INCREMENT OF DISP.         1.000E-05   AT NODE          1   DOF  2
   INSTANCE: CUBE_ASSEMBLY                                                                   
 LARGEST CORRECTION TO DISP.        6.718E-13   AT NODE          6   DOF  3
   INSTANCE: CUBE_ASSEMBLY                                                                   
          THE FORCE     EQUILIBRIUM EQUATIONS HAVE CONVERGED

 AVERAGE HEAT FLUX                  1.446E-04   TIME AVG. HEAT FLUX   1.497E-04
 LARGEST RESIDUAL HEAT FLUX        -2.874E-07   AT NODE          6   DOF 11
   INSTANCE: CUBE_ASSEMBLY                                                                   
 LARGEST INCREMENT OF TEMP.         0.721       AT NODE          2   DOF 11
   INSTANCE: CUBE_ASSEMBLY                                                                   
 LARGEST CORRECTION TO TEMP.       -3.390E-03   AT NODE          4   DOF 11
   INSTANCE: CUBE_ASSEMBLY                                                                   
          THE HEAT FLUX EQUILIBRIUM EQUATIONS HAVE CONVERGED

 MAXIMUM NON-PRESCRIBED INCREMENT IN TEMPERATURE IS   0.721    

 ITERATION SUMMARY FOR THE INCREMENT:   2 TOTAL ITERATIONS, OF WHICH
   0 ARE SEVERE DISCONTINUITY ITERATIONS AND  2 ARE EQUILIBRIUM ITERATIONS.

 TIME INCREMENT COMPLETED   1.00    ,  FRACTION OF STEP COMPLETED  4.000E-02
 STEP TIME COMPLETED        4.00    ,  TOTAL TIME COMPLETED         4.00    


  INCREMENT     5 STARTS. ATTEMPT NUMBER  1, TIME INCREMENT   1.00    
 
	UNSYMMETRIC NEW DIRECT SPARSE SOLVER RUNNING ON
 	1 HOST x 1 MPI RANK PER HOST x 1 THREAD PER RANK
        NUMBER OF EQUATIONS:  32
        NUMBER OF RHS:        1
        NUMBER OF FLOPS:      2.189e+04
        SOLVER ELAPSED TIME:  1ms

               CONVERGENCE CHECKS FOR EQUILIBRIUM ITERATION     1


 AVERAGE FORCE                      2.488E+03   TIME AVG. FORCE       1.445E+03
 LARGEST SCALED RESIDUAL FORCE      6.831E-05   AT NODE          1   DOF  1
   INSTANCE: CUBE_ASSEMBLY                                                                   
  CORRESPONDING RESIDUAL FORCE      6.831E-05
 LARGEST INCREMENT OF DISP.         1.000E-05   AT NODE          1   DOF  2
   INSTANCE: CUBE_ASSEMBLY                                                                   
 LARGEST CORRECTION TO DISP.        3.564E-08   AT NODE          6   DOF  3
   INSTANCE: CUBE_ASSEMBLY                                                                   
          THE FORCE     EQUILIBRIUM EQUATIONS HAVE CONVERGED

 AVERAGE HEAT FLUX                  1.420E-04   TIME AVG. HEAT FLUX   1.482E-04
 LARGEST RESIDUAL HEAT FLUX        -1.321E-06   AT NODE          2   DOF 11
   INSTANCE: CUBE_ASSEMBLY                                                                   
 LARGEST INCREMENT OF TEMP.         0.705       AT NODE          8   DOF 11
   INSTANCE: CUBE_ASSEMBLY                                                                   
 LARGEST CORRECTION TO TEMP.       -1.552E-02   AT NODE          6   DOF 11
   INSTANCE: CUBE_ASSEMBLY                                                                   
          HEAT FLUX EQUILIBRIUM NOT ACHIEVED WITHIN TOLERANCE.
 
	UNSYMMETRIC NEW DIRECT SPARSE SOLVER RUNNING ON
 	1 HOST x 1 MPI RANK PER HOST x 1 THREAD PER RANK
        NUMBER OF EQUATIONS:  32
        NUMBER OF RHS:        1
        NUMBER OF FLOPS:      2.189e+04
        SOLVER ELAPSED TIME:  1ms

               CONVERGENCE CHECKS FOR EQUILIBRIUM ITERATION     2


 AVERAGE FORCE                      2.488E+03   TIME AVG. FORCE       1.445E+03
 LARGEST SCALED RESIDUAL FORCE      4.225E-11   AT NODE          3   DOF  1
   INSTANCE: CUBE_ASSEMBLY                                                                   
  CORRESPONDING RESIDUAL FORCE      4.225E-11
 LARGEST INCREMENT OF DISP.         1.000E-05   AT NODE          1   DOF  2
   INSTANCE: CUBE_ASSEMBLY                                                                   
 LARGEST CORRECTION TO DISP.        6.444E-13   AT NODE          2   DOF  3
   INSTANCE: CUBE_ASSEMBLY                                                                   
          THE FORCE     EQUILIBRIUM EQUATIONS HAVE CONVERGED

 AVERAGE HEAT FLUX                  1.413E-04   TIME AVG. HEAT FLUX   1.480E-04
 LARGEST RESIDUAL HEAT FLUX        -2.776E-07   AT NODE          6   DOF 11
   INSTANCE: CUBE_ASSEMBLY                                                                   
 LARGEST INCREMENT OF TEMP.         0.702       AT NODE          8   DOF 11
   INSTANCE: CUBE_ASSEMBLY                                                                   
 LARGEST CORRECTION TO TEMP.       -3.262E-03   AT NODE          2   DOF 11
   INSTANCE: CUBE_ASSEMBLY                                                                   
          THE HEAT FLUX EQUILIBRIUM EQUATIONS HAVE CONVERGED

 MAXIMUM NON-PRESCRIBED INCREMENT IN TEMPERATURE IS   0.702    

 ITERATION SUMMARY FOR THE INCREMENT:   2 TOTAL ITERATIONS, OF WHICH
   0 ARE SEVERE DISCONTINUITY ITERATIONS AND  2 ARE EQUILIBRIUM ITERATIONS.

 TIME INCREMENT COMPLETED   1.00    ,  FRACTION OF STEP COMPLETED  5.000E-02
 STEP TIME COMPLETED        5.00    ,  TOTAL TIME COMPLETED         5.00    


  INCREMENT     6 STARTS. ATTEMPT NUMBER  1, TIME INCREMENT   1.00    
 
	UNSYMMETRIC NEW DIRECT SPARSE SOLVER RUNNING ON
 	1 HOST x 1 MPI RANK PER HOST x 1 THREAD PER RANK
        NUMBER OF EQUATIONS:  32
        NUMBER OF RHS:        1
        NUMBER OF FLOPS:      2.189e+04
        SOLVER ELAPSED TIME:  1ms

               CONVERGENCE CHECKS FOR EQUILIBRIUM ITERATION     1


 AVERAGE FORCE                      2.954E+03   TIME AVG. FORCE       1.696E+03
 LARGEST SCALED RESIDUAL FORCE      6.618E-05   AT NODE          2   DOF  3
   INSTANCE: CUBE_ASSEMBLY                                                                   
  CORRESPONDING RESIDUAL FORCE      6.618E-05
 LARGEST INCREMENT OF DISP.         1.000E-05   AT NODE          1   DOF  2
   INSTANCE: CUBE_ASSEMBLY                                                                   
 LARGEST CORRECTION TO DISP.        3.486E-08   AT NODE          6   DOF  3
   INSTANCE: CUBE_ASSEMBLY                                                                   
          THE FORCE     EQUILIBRIUM EQUATIONS HAVE CONVERGED

 AVERAGE HEAT FLUX                  1.389E-04   TIME AVG. HEAT FLUX   1.465E-04
 LARGEST RESIDUAL HEAT FLUX        -1.276E-06   AT NODE          8   DOF 11
   INSTANCE: CUBE_ASSEMBLY                                                                   
 LARGEST INCREMENT OF TEMP.         0.687       AT NODE          6   DOF 11
   INSTANCE: CUBE_ASSEMBLY                                                                   
 LARGEST CORRECTION TO TEMP.       -1.494E-02   AT NODE          4   DOF 11
   INSTANCE: CUBE_ASSEMBLY                                                                   
          HEAT FLUX EQUILIBRIUM NOT ACHIEVED WITHIN TOLERANCE.
 
	UNSYMMETRIC NEW DIRECT SPARSE SOLVER RUNNING ON
 	1 HOST x 1 MPI RANK PER HOST x 1 THREAD PER RANK
        NUMBER OF EQUATIONS:  32
        NUMBER OF RHS:        1
        NUMBER OF FLOPS:      2.189e+04
        SOLVER ELAPSED TIME:  1ms

               CONVERGENCE CHECKS FOR EQUILIBRIUM ITERATION     2


 AVERAGE FORCE                      2.954E+03   TIME AVG. FORCE       1.696E+03
 LARGEST SCALED RESIDUAL FORCE     -1.789E-11   AT NODE          3   DOF  1
   INSTANCE: CUBE_ASSEMBLY                                                                   
  CORRESPONDING RESIDUAL FORCE     -1.789E-11
 LARGEST INCREMENT OF DISP.         1.000E-05   AT NODE          1   DOF  2
   INSTANCE: CUBE_ASSEMBLY                                                                   
 LARGEST CORRECTION TO DISP.        6.184E-13   AT NODE          6   DOF  3
   INSTANCE: CUBE_ASSEMBLY                                                                   
          THE FORCE     EQUILIBRIUM EQUATIONS HAVE CONVERGED

 AVERAGE HEAT FLUX                  1.382E-04   TIME AVG. HEAT FLUX   1.464E-04
 LARGEST RESIDUAL HEAT FLUX        -2.682E-07   AT NODE          6   DOF 11
   INSTANCE: CUBE_ASSEMBLY                                                                   
 LARGEST INCREMENT OF TEMP.         0.684       AT NODE          6   DOF 11
   INSTANCE: CUBE_ASSEMBLY                                                                   
 LARGEST CORRECTION TO TEMP.       -3.139E-03   AT NODE          8   DOF 11
   INSTANCE: CUBE_ASSEMBLY                                                                   
          THE HEAT FLUX EQUILIBRIUM EQUATIONS HAVE CONVERGED

 MAXIMUM NON-PRESCRIBED INCREMENT IN TEMPERATURE IS   0.684    

 ITERATION SUMMARY FOR THE INCREMENT:   2 TOTAL ITERATIONS, OF WHICH
   0 ARE SEVERE DISCONTINUITY ITERATIONS AND  2 ARE EQUILIBRIUM ITERATIONS.

 TIME INCREMENT COMPLETED   1.00    ,  FRACTION OF STEP COMPLETED  6.000E-02
 STEP TIME COMPLETED        6.00    ,  TOTAL TIME COMPLETED         6.00    


  INCREMENT     7 STARTS. ATTEMPT NUMBER  1, TIME INCREMENT   1.00    
 
	UNSYMMETRIC NEW DIRECT SPARSE SOLVER RUNNING ON
 	1 HOST x 1 MPI RANK PER HOST x 1 THREAD PER RANK
        NUMBER OF EQUATIONS:  32
        NUMBER OF RHS:        1
        NUMBER OF FLOPS:      2.189e+04
        SOLVER ELAPSED TIME:  0ms

               CONVERGENCE CHECKS FOR EQUILIBRIUM ITERATION     1


 AVERAGE FORCE                      3.411E+03   TIME AVG. FORCE       1.941E+03
 LARGEST SCALED RESIDUAL FORCE      6.414E-05   AT NODE          3   DOF  1
   INSTANCE: CUBE_ASSEMBLY                                                                   
  CORRESPONDING RESIDUAL FORCE      6.414E-05
 LARGEST INCREMENT OF DISP.         1.000E-05   AT NODE          1   DOF  2
   INSTANCE: CUBE_ASSEMBLY                                                                   
 LARGEST CORRECTION TO DISP.        3.411E-08   AT NODE          5   DOF  3
   INSTANCE: CUBE_ASSEMBLY                                                                   
          THE FORCE     EQUILIBRIUM EQUATIONS HAVE CONVERGED

 AVERAGE HEAT FLUX                  1.358E-04   TIME AVG. HEAT FLUX   1.449E-04
 LARGEST RESIDUAL HEAT FLUX        -1.234E-06   AT NODE          4   DOF 11
   INSTANCE: CUBE_ASSEMBLY                                                                   
 LARGEST INCREMENT OF TEMP.         0.669       AT NODE          6   DOF 11
   INSTANCE: CUBE_ASSEMBLY                                                                   
 LARGEST CORRECTION TO TEMP.       -1.438E-02   AT NODE          2   DOF 11
   INSTANCE: CUBE_ASSEMBLY                                                                   
          HEAT FLUX EQUILIBRIUM NOT ACHIEVED WITHIN TOLERANCE.
 
	UNSYMMETRIC NEW DIRECT SPARSE SOLVER RUNNING ON
 	1 HOST x 1 MPI RANK PER HOST x 1 THREAD PER RANK
        NUMBER OF EQUATIONS:  32
        NUMBER OF RHS:        1
        NUMBER OF FLOPS:      2.189e+04
        SOLVER ELAPSED TIME:  1ms

               CONVERGENCE CHECKS FOR EQUILIBRIUM ITERATION     2


 AVERAGE FORCE                      3.411E+03   TIME AVG. FORCE       1.941E+03
 LARGEST SCALED RESIDUAL FORCE      9.777E-12   AT NODE          4   DOF  1
   INSTANCE: CUBE_ASSEMBLY                                                                   
  CORRESPONDING RESIDUAL FORCE      9.777E-12
 LARGEST INCREMENT OF DISP.         1.000E-05   AT NODE          1   DOF  2
   INSTANCE: CUBE_ASSEMBLY                                                                   
 LARGEST CORRECTION TO DISP.        5.937E-13   AT NODE          3   DOF  1
   INSTANCE: CUBE_ASSEMBLY                                                                   
          THE FORCE     EQUILIBRIUM EQUATIONS HAVE CONVERGED

 AVERAGE HEAT FLUX                  1.352E-04   TIME AVG. HEAT FLUX   1.448E-04
 LARGEST RESIDUAL HEAT FLUX        -2.593E-07   AT NODE          2   DOF 11
   INSTANCE: CUBE_ASSEMBLY                                                                   
 LARGEST INCREMENT OF TEMP.         0.666       AT NODE          6   DOF 11
   INSTANCE: CUBE_ASSEMBLY                                                                   
 LARGEST CORRECTION TO TEMP.       -3.023E-03   AT NODE          4   DOF 11
   INSTANCE: CUBE_ASSEMBLY                                                                   
          THE HEAT FLUX EQUILIBRIUM EQUATIONS HAVE CONVERGED

 MAXIMUM NON-PRESCRIBED INCREMENT IN TEMPERATURE IS   0.666    

 ITERATION SUMMARY FOR THE INCREMENT:   2 TOTAL ITERATIONS, OF WHICH
   0 ARE SEVERE DISCONTINUITY ITERATIONS AND  2 ARE EQUILIBRIUM ITERATIONS.

 TIME INCREMENT COMPLETED   1.00    ,  FRACTION OF STEP COMPLETED  7.000E-02
 STEP TIME COMPLETED        7.00    ,  TOTAL TIME COMPLETED         7.00    


  INCREMENT     8 STARTS. ATTEMPT NUMBER  1, TIME INCREMENT   1.00    
 
	UNSYMMETRIC NEW DIRECT SPARSE SOLVER RUNNING ON
 	1 HOST x 1 MPI RANK PER HOST x 1 THREAD PER RANK
        NUMBER OF EQUATIONS:  32
        NUMBER OF RHS:        1
        NUMBER OF FLOPS:      2.189e+04
        SOLVER ELAPSED TIME:  1ms

               CONVERGENCE CHECKS FOR EQUILIBRIUM ITERATION     1


 AVERAGE FORCE                      3.858E+03   TIME AVG. FORCE       2.181E+03
 LARGEST SCALED RESIDUAL FORCE      6.217E-05   AT NODE          3   DOF  1
   INSTANCE: CUBE_ASSEMBLY                                                                   
  CORRESPONDING RESIDUAL FORCE      6.217E-05
 LARGEST INCREMENT OF DISP.         1.000E-05   AT NODE          1   DOF  2
   INSTANCE: CUBE_ASSEMBLY                                                                   
 LARGEST CORRECTION TO DISP.        3.338E-08   AT NODE          6   DOF  3
   INSTANCE: CUBE_ASSEMBLY                                                                   
          THE FORCE     EQUILIBRIUM EQUATIONS HAVE CONVERGED

 AVERAGE HEAT FLUX                  1.329E-04   TIME AVG. HEAT FLUX   1.433E-04
 LARGEST RESIDUAL HEAT FLUX        -1.193E-06   AT NODE          6   DOF 11
   INSTANCE: CUBE_ASSEMBLY                                                                   
 LARGEST INCREMENT OF TEMP.         0.652       AT NODE          6   DOF 11
   INSTANCE: CUBE_ASSEMBLY                                                                   
 LARGEST CORRECTION TO TEMP.       -1.385E-02   AT NODE          6   DOF 11
   INSTANCE: CUBE_ASSEMBLY                                                                   
          HEAT FLUX EQUILIBRIUM NOT ACHIEVED WITHIN TOLERANCE.
 
	UNSYMMETRIC NEW DIRECT SPARSE SOLVER RUNNING ON
 	1 HOST x 1 MPI RANK PER HOST x 1 THREAD PER RANK
        NUMBER OF EQUATIONS:  32
        NUMBER OF RHS:        1
        NUMBER OF FLOPS:      2.189e+04
        SOLVER ELAPSED TIME:  1ms

               CONVERGENCE CHECKS FOR EQUILIBRIUM ITERATION     2


 AVERAGE FORCE                      3.858E+03   TIME AVG. FORCE       2.181E+03
 LARGEST SCALED RESIDUAL FORCE      2.945E-11   AT NODE          4   DOF  1
   INSTANCE: CUBE_ASSEMBLY                                                                   
  CORRESPONDING RESIDUAL FORCE      2.945E-11
 LARGEST INCREMENT OF DISP.         1.000E-05   AT NODE          1   DOF  2
   INSTANCE: CUBE_ASSEMBLY                                                                   
 LARGEST CORRECTION TO DISP.        5.702E-13   AT NODE          3   DOF  1
   INSTANCE: CUBE_ASSEMBLY                                                                   
          THE FORCE     EQUILIBRIUM EQUATIONS HAVE CONVERGED

 AVERAGE HEAT FLUX                  1.323E-04   TIME AVG. HEAT FLUX   1.432E-04
 LARGEST RESIDUAL HEAT FLUX        -2.507E-07   AT NODE          4   DOF 11
   INSTANCE: CUBE_ASSEMBLY                                                                   
 LARGEST INCREMENT OF TEMP.         0.650       AT NODE          2   DOF 11
   INSTANCE: CUBE_ASSEMBLY                                                                   
 LARGEST CORRECTION TO TEMP.       -2.912E-03   AT NODE          6   DOF 11
   INSTANCE: CUBE_ASSEMBLY                                                                   
          THE HEAT FLUX EQUILIBRIUM EQUATIONS HAVE CONVERGED

 MAXIMUM NON-PRESCRIBED INCREMENT IN TEMPERATURE IS   0.650    

 ITERATION SUMMARY FOR THE INCREMENT:   2 TOTAL ITERATIONS, OF WHICH
   0 ARE SEVERE DISCONTINUITY ITERATIONS AND  2 ARE EQUILIBRIUM ITERATIONS.

 TIME INCREMENT COMPLETED   1.00    ,  FRACTION OF STEP COMPLETED  8.000E-02
 STEP TIME COMPLETED        8.00    ,  TOTAL TIME COMPLETED         8.00    


  INCREMENT     9 STARTS. ATTEMPT NUMBER  1, TIME INCREMENT   1.00    
 
	UNSYMMETRIC NEW DIRECT SPARSE SOLVER RUNNING ON
 	1 HOST x 1 MPI RANK PER HOST x 1 THREAD PER RANK
        NUMBER OF EQUATIONS:  32
        NUMBER OF RHS:        1
        NUMBER OF FLOPS:      2.189e+04
        SOLVER ELAPSED TIME:  1ms

               CONVERGENCE CHECKS FOR EQUILIBRIUM ITERATION     1


 AVERAGE FORCE                      4.296E+03   TIME AVG. FORCE       2.416E+03
 LARGEST SCALED RESIDUAL FORCE      6.029E-05   AT NODE          1   DOF  1
   INSTANCE: CUBE_ASSEMBLY                                                                   
  CORRESPONDING RESIDUAL FORCE      6.029E-05
 LARGEST INCREMENT OF DISP.         1.000E-05   AT NODE          1   DOF  2
   INSTANCE: CUBE_ASSEMBLY                                                                   
 LARGEST CORRECTION TO DISP.        3.267E-08   AT NODE          2   DOF  3
   INSTANCE: CUBE_ASSEMBLY                                                                   
          THE FORCE     EQUILIBRIUM EQUATIONS HAVE CONVERGED

 AVERAGE HEAT FLUX                  1.301E-04   TIME AVG. HEAT FLUX   1.418E-04
 LARGEST RESIDUAL HEAT FLUX        -1.153E-06   AT NODE          6   DOF 11
   INSTANCE: CUBE_ASSEMBLY                                                                   
 LARGEST INCREMENT OF TEMP.         0.636       AT NODE          2   DOF 11
   INSTANCE: CUBE_ASSEMBLY                                                                   
 LARGEST CORRECTION TO TEMP.       -1.335E-02   AT NODE          6   DOF 11
   INSTANCE: CUBE_ASSEMBLY                                                                   
          HEAT FLUX EQUILIBRIUM NOT ACHIEVED WITHIN TOLERANCE.
 
	UNSYMMETRIC NEW DIRECT SPARSE SOLVER RUNNING ON
 	1 HOST x 1 MPI RANK PER HOST x 1 THREAD PER RANK
        NUMBER OF EQUATIONS:  32
        NUMBER OF RHS:        1
        NUMBER OF FLOPS:      2.189e+04
        SOLVER ELAPSED TIME:  1ms

               CONVERGENCE CHECKS FOR EQUILIBRIUM ITERATION     2


 AVERAGE FORCE                      4.296E+03   TIME AVG. FORCE       2.416E+03
 LARGEST SCALED RESIDUAL FORCE      3.340E-11   AT NODE          3   DOF  1
   INSTANCE: CUBE_ASSEMBLY                                                                   
  CORRESPONDING RESIDUAL FORCE      3.340E-11
 LARGEST INCREMENT OF DISP.         1.000E-05   AT NODE          1   DOF  2
   INSTANCE: CUBE_ASSEMBLY                                                                   
 LARGEST CORRECTION TO DISP.        5.478E-13   AT NODE          1   DOF  1
   INSTANCE: CUBE_ASSEMBLY                                                                   
          THE FORCE     EQUILIBRIUM EQUATIONS HAVE CONVERGED

 AVERAGE HEAT FLUX                  1.295E-04   TIME AVG. HEAT FLUX   1.417E-04
 LARGEST RESIDUAL HEAT FLUX        -2.425E-07   AT NODE          2   DOF 11
   INSTANCE: CUBE_ASSEMBLY                                                                   
 LARGEST INCREMENT OF TEMP.         0.633       AT NODE          2   DOF 11
   INSTANCE: CUBE_ASSEMBLY                                                                   
 LARGEST CORRECTION TO TEMP.       -2.806E-03   AT NODE          6   DOF 11
   INSTANCE: CUBE_ASSEMBLY                                                                   
          THE HEAT FLUX EQUILIBRIUM EQUATIONS HAVE CONVERGED

 MAXIMUM NON-PRESCRIBED INCREMENT IN TEMPERATURE IS   0.633    

 ITERATION SUMMARY FOR THE INCREMENT:   2 TOTAL ITERATIONS, OF WHICH
   0 ARE SEVERE DISCONTINUITY ITERATIONS AND  2 ARE EQUILIBRIUM ITERATIONS.

 TIME INCREMENT COMPLETED   1.00    ,  FRACTION OF STEP COMPLETED  9.000E-02
 STEP TIME COMPLETED        9.00    ,  TOTAL TIME COMPLETED         9.00    


  INCREMENT    10 STARTS. ATTEMPT NUMBER  1, TIME INCREMENT   1.00    
 
	UNSYMMETRIC NEW DIRECT SPARSE SOLVER RUNNING ON
 	1 HOST x 1 MPI RANK PER HOST x 1 THREAD PER RANK
        NUMBER OF EQUATIONS:  32
        NUMBER OF RHS:        1
        NUMBER OF FLOPS:      2.189e+04
        SOLVER ELAPSED TIME:  1ms

               CONVERGENCE CHECKS FOR EQUILIBRIUM ITERATION     1


 AVERAGE FORCE                      4.726E+03   TIME AVG. FORCE       2.647E+03
 LARGEST SCALED RESIDUAL FORCE      5.847E-05   AT NODE          3   DOF  1
   INSTANCE: CUBE_ASSEMBLY                                                                   
  CORRESPONDING RESIDUAL FORCE      5.847E-05
 LARGEST INCREMENT OF DISP.         1.000E-05   AT NODE          1   DOF  2
   INSTANCE: CUBE_ASSEMBLY                                                                   
 LARGEST CORRECTION TO DISP.        3.199E-08   AT NODE          1   DOF  3
   INSTANCE: CUBE_ASSEMBLY                                                                   
          THE FORCE     EQUILIBRIUM EQUATIONS HAVE CONVERGED

 AVERAGE HEAT FLUX                  1.273E-04   TIME AVG. HEAT FLUX   1.403E-04
 LARGEST RESIDUAL HEAT FLUX        -1.116E-06   AT NODE          4   DOF 11
   INSTANCE: CUBE_ASSEMBLY                                                                   
 LARGEST INCREMENT OF TEMP.         0.621       AT NODE          2   DOF 11
   INSTANCE: CUBE_ASSEMBLY                                                                   
 LARGEST CORRECTION TO TEMP.       -1.287E-02   AT NODE          8   DOF 11
   INSTANCE: CUBE_ASSEMBLY                                                                   
          HEAT FLUX EQUILIBRIUM NOT ACHIEVED WITHIN TOLERANCE.
 
	UNSYMMETRIC NEW DIRECT SPARSE SOLVER RUNNING ON
 	1 HOST x 1 MPI RANK PER HOST x 1 THREAD PER RANK
        NUMBER OF EQUATIONS:  32
        NUMBER OF RHS:        1
        NUMBER OF FLOPS:      2.189e+04
        SOLVER ELAPSED TIME:  1ms

               CONVERGENCE CHECKS FOR EQUILIBRIUM ITERATION     2


 AVERAGE FORCE                      4.726E+03   TIME AVG. FORCE       2.647E+03
 LARGEST SCALED RESIDUAL FORCE      1.550E-11   AT NODE          4   DOF  1
   INSTANCE: CUBE_ASSEMBLY                                                                   
  CORRESPONDING RESIDUAL FORCE      1.550E-11
 LARGEST INCREMENT OF DISP.         1.000E-05   AT NODE          1   DOF  2
   INSTANCE: CUBE_ASSEMBLY                                                                   
 LARGEST CORRECTION TO DISP.        5.265E-13   AT NODE          6   DOF  3
   INSTANCE: CUBE_ASSEMBLY                                                                   
          THE FORCE     EQUILIBRIUM EQUATIONS HAVE CONVERGED

 AVERAGE HEAT FLUX                  1.268E-04   TIME AVG. HEAT FLUX   1.402E-04
 LARGEST RESIDUAL HEAT FLUX        -2.346E-07   AT NODE          4   DOF 11
   INSTANCE: CUBE_ASSEMBLY                                                                   
 LARGEST INCREMENT OF TEMP.         0.618       AT NODE          2   DOF 11
   INSTANCE: CUBE_ASSEMBLY                                                                   
 LARGEST CORRECTION TO TEMP.       -2.706E-03   AT NODE          4   DOF 11
   INSTANCE: CUBE_ASSEMBLY                                                                   
          THE HEAT FLUX EQUILIBRIUM EQUATIONS HAVE CONVERGED

 MAXIMUM NON-PRESCRIBED INCREMENT IN TEMPERATURE IS   0.618    

 ITERATION SUMMARY FOR THE INCREMENT:   2 TOTAL ITERATIONS, OF WHICH
   0 ARE SEVERE DISCONTINUITY ITERATIONS AND  2 ARE EQUILIBRIUM ITERATIONS.

 TIME INCREMENT COMPLETED   1.00    ,  FRACTION OF STEP COMPLETED  0.100    
 STEP TIME COMPLETED        10.0    ,  TOTAL TIME COMPLETED         10.0    


  INCREMENT    11 STARTS. ATTEMPT NUMBER  1, TIME INCREMENT   1.00    
 
	UNSYMMETRIC NEW DIRECT SPARSE SOLVER RUNNING ON
 	1 HOST x 1 MPI RANK PER HOST x 1 THREAD PER RANK
        NUMBER OF EQUATIONS:  32
        NUMBER OF RHS:        1
        NUMBER OF FLOPS:      2.189e+04
        SOLVER ELAPSED TIME:  1ms

               CONVERGENCE CHECKS FOR EQUILIBRIUM ITERATION     1


 AVERAGE FORCE                      5.146E+03   TIME AVG. FORCE       2.874E+03
 LARGEST SCALED RESIDUAL FORCE      5.673E-05   AT NODE          1   DOF  3
   INSTANCE: CUBE_ASSEMBLY                                                                   
  CORRESPONDING RESIDUAL FORCE      5.673E-05
 LARGEST INCREMENT OF DISP.         1.000E-05   AT NODE          1   DOF  2
   INSTANCE: CUBE_ASSEMBLY                                                                   
 LARGEST CORRECTION TO DISP.        3.132E-08   AT NODE          2   DOF  3
   INSTANCE: CUBE_ASSEMBLY                                                                   
          THE FORCE     EQUILIBRIUM EQUATIONS HAVE CONVERGED

 AVERAGE HEAT FLUX                  1.247E-04   TIME AVG. HEAT FLUX   1.388E-04
 LARGEST RESIDUAL HEAT FLUX        -1.080E-06   AT NODE          2   DOF 11
   INSTANCE: CUBE_ASSEMBLY                                                                   
 LARGEST INCREMENT OF TEMP.         0.605       AT NODE          2   DOF 11
   INSTANCE: CUBE_ASSEMBLY                                                                   
 LARGEST CORRECTION TO TEMP.       -1.241E-02   AT NODE          8   DOF 11
   INSTANCE: CUBE_ASSEMBLY                                                                   
          HEAT FLUX EQUILIBRIUM NOT ACHIEVED WITHIN TOLERANCE.
 
	UNSYMMETRIC NEW DIRECT SPARSE SOLVER RUNNING ON
 	1 HOST x 1 MPI RANK PER HOST x 1 THREAD PER RANK
        NUMBER OF EQUATIONS:  32
        NUMBER OF RHS:        1
        NUMBER OF FLOPS:      2.189e+04
        SOLVER ELAPSED TIME:  1ms

               CONVERGENCE CHECKS FOR EQUILIBRIUM ITERATION     2


 AVERAGE FORCE                      5.146E+03   TIME AVG. FORCE       2.874E+03
 LARGEST SCALED RESIDUAL FORCE      1.600E-11   AT NODE          3   DOF  1
   INSTANCE: CUBE_ASSEMBLY                                                                   
  CORRESPONDING RESIDUAL FORCE      1.600E-11
 LARGEST INCREMENT OF DISP.         1.000E-05   AT NODE          1   DOF  2
   INSTANCE: CUBE_ASSEMBLY                                                                   
 LARGEST CORRECTION TO DISP.        5.062E-13   AT NODE          1   DOF  3
   INSTANCE: CUBE_ASSEMBLY                                                                   
          THE FORCE     EQUILIBRIUM EQUATIONS HAVE CONVERGED

 AVERAGE HEAT FLUX                  1.241E-04   TIME AVG. HEAT FLUX   1.387E-04
 LARGEST RESIDUAL HEAT FLUX        -2.271E-07   AT NODE          8   DOF 11
   INSTANCE: CUBE_ASSEMBLY                                                                   
 LARGEST INCREMENT OF TEMP.         0.603       AT NODE          2   DOF 11
   INSTANCE: CUBE_ASSEMBLY                                                                   
 LARGEST CORRECTION TO TEMP.       -2.609E-03   AT NODE          2   DOF 11
   INSTANCE: CUBE_ASSEMBLY                                                                   
          THE HEAT FLUX EQUILIBRIUM EQUATIONS HAVE CONVERGED

 MAXIMUM NON-PRESCRIBED INCREMENT IN TEMPERATURE IS   0.603    

 ITERATION SUMMARY FOR THE INCREMENT:   2 TOTAL ITERATIONS, OF WHICH
   0 ARE SEVERE DISCONTINUITY ITERATIONS AND  2 ARE EQUILIBRIUM ITERATIONS.

 TIME INCREMENT COMPLETED   1.00    ,  FRACTION OF STEP COMPLETED  0.110    
 STEP TIME COMPLETED        11.0    ,  TOTAL TIME COMPLETED         11.0    


  INCREMENT    12 STARTS. ATTEMPT NUMBER  1, TIME INCREMENT   1.00    
 
	UNSYMMETRIC NEW DIRECT SPARSE SOLVER RUNNING ON
 	1 HOST x 1 MPI RANK PER HOST x 1 THREAD PER RANK
        NUMBER OF EQUATIONS:  32
        NUMBER OF RHS:        1
        NUMBER OF FLOPS:      2.189e+04
        SOLVER ELAPSED TIME:  1ms

               CONVERGENCE CHECKS FOR EQUILIBRIUM ITERATION     1


 AVERAGE FORCE                      5.559E+03   TIME AVG. FORCE       3.098E+03
 LARGEST SCALED RESIDUAL FORCE      5.506E-05   AT NODE          1   DOF  1
   INSTANCE: CUBE_ASSEMBLY                                                                   
  CORRESPONDING RESIDUAL FORCE      5.506E-05
 LARGEST INCREMENT OF DISP.         1.000E-05   AT NODE          1   DOF  2
   INSTANCE: CUBE_ASSEMBLY                                                                   
 LARGEST CORRECTION TO DISP.        3.068E-08   AT NODE          6   DOF  3
   INSTANCE: CUBE_ASSEMBLY                                                                   
          THE FORCE     EQUILIBRIUM EQUATIONS HAVE CONVERGED

 AVERAGE HEAT FLUX                  1.221E-04   TIME AVG. HEAT FLUX   1.374E-04
 LARGEST RESIDUAL HEAT FLUX        -1.046E-06   AT NODE          6   DOF 11
   INSTANCE: CUBE_ASSEMBLY                                                                   
 LARGEST INCREMENT OF TEMP.         0.591       AT NODE          8   DOF 11
   INSTANCE: CUBE_ASSEMBLY                                                                   
 LARGEST CORRECTION TO TEMP.       -1.197E-02   AT NODE          2   DOF 11
   INSTANCE: CUBE_ASSEMBLY                                                                   
          HEAT FLUX EQUILIBRIUM NOT ACHIEVED WITHIN TOLERANCE.
 
	UNSYMMETRIC NEW DIRECT SPARSE SOLVER RUNNING ON
 	1 HOST x 1 MPI RANK PER HOST x 1 THREAD PER RANK
        NUMBER OF EQUATIONS:  32
        NUMBER OF RHS:        1
        NUMBER OF FLOPS:      2.189e+04
        SOLVER ELAPSED TIME:  1ms

               CONVERGENCE CHECKS FOR EQUILIBRIUM ITERATION     2


 AVERAGE FORCE                      5.559E+03   TIME AVG. FORCE       3.098E+03
 LARGEST SCALED RESIDUAL FORCE     -2.512E-11   AT NODE          3   DOF  1
   INSTANCE: CUBE_ASSEMBLY                                                                   
  CORRESPONDING RESIDUAL FORCE     -2.512E-11
 LARGEST INCREMENT OF DISP.         1.000E-05   AT NODE          1   DOF  2
   INSTANCE: CUBE_ASSEMBLY                                                                   
 LARGEST CORRECTION TO DISP.        4.869E-13   AT NODE          1   DOF  1
   INSTANCE: CUBE_ASSEMBLY                                                                   
          THE FORCE     EQUILIBRIUM EQUATIONS HAVE CONVERGED

 AVERAGE HEAT FLUX                  1.216E-04   TIME AVG. HEAT FLUX   1.373E-04
 LARGEST RESIDUAL HEAT FLUX        -2.199E-07   AT NODE          4   DOF 11
   INSTANCE: CUBE_ASSEMBLY                                                                   
 LARGEST INCREMENT OF TEMP.         0.588       AT NODE          8   DOF 11
   INSTANCE: CUBE_ASSEMBLY                                                                   
 LARGEST CORRECTION TO TEMP.       -2.518E-03   AT NODE          6   DOF 11
   INSTANCE: CUBE_ASSEMBLY                                                                   
          THE HEAT FLUX EQUILIBRIUM EQUATIONS HAVE CONVERGED

 MAXIMUM NON-PRESCRIBED INCREMENT IN TEMPERATURE IS   0.588    

 ITERATION SUMMARY FOR THE INCREMENT:   2 TOTAL ITERATIONS, OF WHICH
   0 ARE SEVERE DISCONTINUITY ITERATIONS AND  2 ARE EQUILIBRIUM ITERATIONS.

 TIME INCREMENT COMPLETED   1.00    ,  FRACTION OF STEP COMPLETED  0.120    
 STEP TIME COMPLETED        12.0    ,  TOTAL TIME COMPLETED         12.0    


  INCREMENT    13 STARTS. ATTEMPT NUMBER  1, TIME INCREMENT   1.00    
 
	UNSYMMETRIC NEW DIRECT SPARSE SOLVER RUNNING ON
 	1 HOST x 1 MPI RANK PER HOST x 1 THREAD PER RANK
        NUMBER OF EQUATIONS:  32
        NUMBER OF RHS:        1
        NUMBER OF FLOPS:      2.189e+04
        SOLVER ELAPSED TIME:  1ms

               CONVERGENCE CHECKS FOR EQUILIBRIUM ITERATION     1


 AVERAGE FORCE                      5.963E+03   TIME AVG. FORCE       3.318E+03
 LARGEST SCALED RESIDUAL FORCE      5.344E-05   AT NODE          6   DOF  3
   INSTANCE: CUBE_ASSEMBLY                                                                   
  CORRESPONDING RESIDUAL FORCE      5.344E-05
 LARGEST INCREMENT OF DISP.         1.000E-05   AT NODE          1   DOF  2
   INSTANCE: CUBE_ASSEMBLY                                                                   
 LARGEST CORRECTION TO DISP.        3.005E-08   AT NODE          1   DOF  3
   INSTANCE: CUBE_ASSEMBLY                                                                   
          THE FORCE     EQUILIBRIUM EQUATIONS HAVE CONVERGED

 AVERAGE HEAT FLUX                  1.196E-04   TIME AVG. HEAT FLUX   1.360E-04
 LARGEST RESIDUAL HEAT FLUX        -1.013E-06   AT NODE          2   DOF 11
   INSTANCE: CUBE_ASSEMBLY                                                                   
 LARGEST INCREMENT OF TEMP.         0.577       AT NODE          8   DOF 11
   INSTANCE: CUBE_ASSEMBLY                                                                   
 LARGEST CORRECTION TO TEMP.       -1.156E-02   AT NODE          4   DOF 11
   INSTANCE: CUBE_ASSEMBLY                                                                   
          HEAT FLUX EQUILIBRIUM NOT ACHIEVED WITHIN TOLERANCE.
 
	UNSYMMETRIC NEW DIRECT SPARSE SOLVER RUNNING ON
 	1 HOST x 1 MPI RANK PER HOST x 1 THREAD PER RANK
        NUMBER OF EQUATIONS:  32
        NUMBER OF RHS:        1
        NUMBER OF FLOPS:      2.189e+04
        SOLVER ELAPSED TIME:  1ms

               CONVERGENCE CHECKS FOR EQUILIBRIUM ITERATION     2


 AVERAGE FORCE                      5.963E+03   TIME AVG. FORCE       3.318E+03
 LARGEST SCALED RESIDUAL FORCE      5.161E-11   AT NODE          3   DOF  1
   INSTANCE: CUBE_ASSEMBLY                                                                   
  CORRESPONDING RESIDUAL FORCE      5.161E-11
 LARGEST INCREMENT OF DISP.         1.000E-05   AT NODE          1   DOF  2
   INSTANCE: CUBE_ASSEMBLY                                                                   
 LARGEST CORRECTION TO DISP.        4.685E-13   AT NODE          6   DOF  3
   INSTANCE: CUBE_ASSEMBLY                                                                   
          THE FORCE     EQUILIBRIUM EQUATIONS HAVE CONVERGED

 AVERAGE HEAT FLUX                  1.191E-04   TIME AVG. HEAT FLUX   1.359E-04
 LARGEST RESIDUAL HEAT FLUX        -2.130E-07   AT NODE          4   DOF 11
   INSTANCE: CUBE_ASSEMBLY                                                                   
 LARGEST INCREMENT OF TEMP.         0.574       AT NODE          8   DOF 11
   INSTANCE: CUBE_ASSEMBLY                                                                   
 LARGEST CORRECTION TO TEMP.       -2.430E-03   AT NODE          2   DOF 11
   INSTANCE: CUBE_ASSEMBLY                                                                   
          THE HEAT FLUX EQUILIBRIUM EQUATIONS HAVE CONVERGED

 MAXIMUM NON-PRESCRIBED INCREMENT IN TEMPERATURE IS   0.574    

 ITERATION SUMMARY FOR THE INCREMENT:   2 TOTAL ITERATIONS, OF WHICH
   0 ARE SEVERE DISCONTINUITY ITERATIONS AND  2 ARE EQUILIBRIUM ITERATIONS.

 TIME INCREMENT COMPLETED   1.00    ,  FRACTION OF STEP COMPLETED  0.130    
 STEP TIME COMPLETED        13.0    ,  TOTAL TIME COMPLETED         13.0    


  INCREMENT    14 STARTS. ATTEMPT NUMBER  1, TIME INCREMENT   1.00    
 
	UNSYMMETRIC NEW DIRECT SPARSE SOLVER RUNNING ON
 	1 HOST x 1 MPI RANK PER HOST x 1 THREAD PER RANK
        NUMBER OF EQUATIONS:  32
        NUMBER OF RHS:        1
        NUMBER OF FLOPS:      2.189e+04
        SOLVER ELAPSED TIME:  1ms

               CONVERGENCE CHECKS FOR EQUILIBRIUM ITERATION     1


 AVERAGE FORCE                      6.359E+03   TIME AVG. FORCE       3.535E+03
 LARGEST SCALED RESIDUAL FORCE      5.189E-05   AT NODE          2   DOF  1
   INSTANCE: CUBE_ASSEMBLY                                                                   
  CORRESPONDING RESIDUAL FORCE      5.189E-05
 LARGEST INCREMENT OF DISP.         1.000E-05   AT NODE          1   DOF  2
   INSTANCE: CUBE_ASSEMBLY                                                                   
 LARGEST CORRECTION TO DISP.        2.944E-08   AT NODE          2   DOF  3
   INSTANCE: CUBE_ASSEMBLY                                                                   
          THE FORCE     EQUILIBRIUM EQUATIONS HAVE CONVERGED

 AVERAGE HEAT FLUX                  1.172E-04   TIME AVG. HEAT FLUX   1.346E-04
 LARGEST RESIDUAL HEAT FLUX        -9.816E-07   AT NODE          8   DOF 11
   INSTANCE: CUBE_ASSEMBLY                                                                   
 LARGEST INCREMENT OF TEMP.         0.563       AT NODE          8   DOF 11
   INSTANCE: CUBE_ASSEMBLY                                                                   
 LARGEST CORRECTION TO TEMP.       -1.116E-02   AT NODE          4   DOF 11
   INSTANCE: CUBE_ASSEMBLY                                                                   
          HEAT FLUX EQUILIBRIUM NOT ACHIEVED WITHIN TOLERANCE.
 
	UNSYMMETRIC NEW DIRECT SPARSE SOLVER RUNNING ON
 	1 HOST x 1 MPI RANK PER HOST x 1 THREAD PER RANK
        NUMBER OF EQUATIONS:  32
        NUMBER OF RHS:        1
        NUMBER OF FLOPS:      2.189e+04
        SOLVER ELAPSED TIME:  1ms

               CONVERGENCE CHECKS FOR EQUILIBRIUM ITERATION     2


 AVERAGE FORCE                      6.359E+03   TIME AVG. FORCE       3.535E+03
 LARGEST SCALED RESIDUAL FORCE      2.453E-11   AT NODE          1   DOF  1
   INSTANCE: CUBE_ASSEMBLY                                                                   
  CORRESPONDING RESIDUAL FORCE      2.453E-11
 LARGEST INCREMENT OF DISP.         1.000E-05   AT NODE          1   DOF  2
   INSTANCE: CUBE_ASSEMBLY                                                                   
 LARGEST CORRECTION TO DISP.        4.509E-13   AT NODE          2   DOF  1
   INSTANCE: CUBE_ASSEMBLY                                                                   
          THE FORCE     EQUILIBRIUM EQUATIONS HAVE CONVERGED

 AVERAGE HEAT FLUX                  1.167E-04   TIME AVG. HEAT FLUX   1.345E-04
 LARGEST RESIDUAL HEAT FLUX        -2.064E-07   AT NODE          6   DOF 11
   INSTANCE: CUBE_ASSEMBLY                                                                   
 LARGEST INCREMENT OF TEMP.         0.561       AT NODE          8   DOF 11
   INSTANCE: CUBE_ASSEMBLY                                                                   
 LARGEST CORRECTION TO TEMP.       -2.347E-03   AT NODE          8   DOF 11
   INSTANCE: CUBE_ASSEMBLY                                                                   
          THE HEAT FLUX EQUILIBRIUM EQUATIONS HAVE CONVERGED

 MAXIMUM NON-PRESCRIBED INCREMENT IN TEMPERATURE IS   0.561    

 ITERATION SUMMARY FOR THE INCREMENT:   2 TOTAL ITERATIONS, OF WHICH
   0 ARE SEVERE DISCONTINUITY ITERATIONS AND  2 ARE EQUILIBRIUM ITERATIONS.

 TIME INCREMENT COMPLETED   1.00    ,  FRACTION OF STEP COMPLETED  0.140    
 STEP TIME COMPLETED        14.0    ,  TOTAL TIME COMPLETED         14.0    


  INCREMENT    15 STARTS. ATTEMPT NUMBER  1, TIME INCREMENT   1.00    
 
	UNSYMMETRIC NEW DIRECT SPARSE SOLVER RUNNING ON
 	1 HOST x 1 MPI RANK PER HOST x 1 THREAD PER RANK
        NUMBER OF EQUATIONS:  32
        NUMBER OF RHS:        1
        NUMBER OF FLOPS:      2.189e+04
        SOLVER ELAPSED TIME:  1ms

               CONVERGENCE CHECKS FOR EQUILIBRIUM ITERATION     1


 AVERAGE FORCE                      6.747E+03   TIME AVG. FORCE       3.750E+03
 LARGEST SCALED RESIDUAL FORCE      5.040E-05   AT NODE          1   DOF  1
   INSTANCE: CUBE_ASSEMBLY                                                                   
  CORRESPONDING RESIDUAL FORCE      5.040E-05
 LARGEST INCREMENT OF DISP.         1.000E-05   AT NODE          1   DOF  2
   INSTANCE: CUBE_ASSEMBLY                                                                   
 LARGEST CORRECTION TO DISP.        2.885E-08   AT NODE          5   DOF  3
   INSTANCE: CUBE_ASSEMBLY                                                                   
          THE FORCE     EQUILIBRIUM EQUATIONS HAVE CONVERGED

 AVERAGE HEAT FLUX                  1.149E-04   TIME AVG. HEAT FLUX   1.332E-04
 LARGEST RESIDUAL HEAT FLUX        -9.515E-07   AT NODE          2   DOF 11
   INSTANCE: CUBE_ASSEMBLY                                                                   
 LARGEST INCREMENT OF TEMP.         0.550       AT NODE          4   DOF 11
   INSTANCE: CUBE_ASSEMBLY                                                                   
 LARGEST CORRECTION TO TEMP.       -1.078E-02   AT NODE          2   DOF 11
   INSTANCE: CUBE_ASSEMBLY                                                                   
          HEAT FLUX EQUILIBRIUM NOT ACHIEVED WITHIN TOLERANCE.
 
	UNSYMMETRIC NEW DIRECT SPARSE SOLVER RUNNING ON
 	1 HOST x 1 MPI RANK PER HOST x 1 THREAD PER RANK
        NUMBER OF EQUATIONS:  32
        NUMBER OF RHS:        1
        NUMBER OF FLOPS:      2.189e+04
        SOLVER ELAPSED TIME:  1ms

               CONVERGENCE CHECKS FOR EQUILIBRIUM ITERATION     2


 AVERAGE FORCE                      6.747E+03   TIME AVG. FORCE       3.750E+03
 LARGEST SCALED RESIDUAL FORCE     -3.223E-11   AT NODE          2   DOF  1
   INSTANCE: CUBE_ASSEMBLY                                                                   
  CORRESPONDING RESIDUAL FORCE     -3.223E-11
 LARGEST INCREMENT OF DISP.         1.000E-05   AT NODE          1   DOF  2
   INSTANCE: CUBE_ASSEMBLY                                                                   
 LARGEST CORRECTION TO DISP.        4.341E-13   AT NODE          1   DOF  1
   INSTANCE: CUBE_ASSEMBLY                                                                   
          THE FORCE     EQUILIBRIUM EQUATIONS HAVE CONVERGED

 AVERAGE HEAT FLUX                  1.144E-04   TIME AVG. HEAT FLUX   1.332E-04
 LARGEST RESIDUAL HEAT FLUX        -2.001E-07   AT NODE          4   DOF 11
   INSTANCE: CUBE_ASSEMBLY                                                                   
 LARGEST INCREMENT OF TEMP.         0.548       AT NODE          6   DOF 11
   INSTANCE: CUBE_ASSEMBLY                                                                   
 LARGEST CORRECTION TO TEMP.       -2.267E-03   AT NODE          2   DOF 11
   INSTANCE: CUBE_ASSEMBLY                                                                   
          THE HEAT FLUX EQUILIBRIUM EQUATIONS HAVE CONVERGED

 MAXIMUM NON-PRESCRIBED INCREMENT IN TEMPERATURE IS   0.548    

 ITERATION SUMMARY FOR THE INCREMENT:   2 TOTAL ITERATIONS, OF WHICH
   0 ARE SEVERE DISCONTINUITY ITERATIONS AND  2 ARE EQUILIBRIUM ITERATIONS.

 TIME INCREMENT COMPLETED   1.00    ,  FRACTION OF STEP COMPLETED  0.150    
 STEP TIME COMPLETED        15.0    ,  TOTAL TIME COMPLETED         15.0    


  INCREMENT    16 STARTS. ATTEMPT NUMBER  1, TIME INCREMENT   1.00    
 
	UNSYMMETRIC NEW DIRECT SPARSE SOLVER RUNNING ON
 	1 HOST x 1 MPI RANK PER HOST x 1 THREAD PER RANK
        NUMBER OF EQUATIONS:  32
        NUMBER OF RHS:        1
        NUMBER OF FLOPS:      2.189e+04
        SOLVER ELAPSED TIME:  1ms

               CONVERGENCE CHECKS FOR EQUILIBRIUM ITERATION     1


 AVERAGE FORCE                      7.128E+03   TIME AVG. FORCE       3.961E+03
 LARGEST SCALED RESIDUAL FORCE      4.897E-05   AT NODE          1   DOF  1
   INSTANCE: CUBE_ASSEMBLY                                                                   
  CORRESPONDING RESIDUAL FORCE      4.897E-05
 LARGEST INCREMENT OF DISP.         1.000E-05   AT NODE          1   DOF  2
   INSTANCE: CUBE_ASSEMBLY                                                                   
 LARGEST CORRECTION TO DISP.        2.828E-08   AT NODE          1   DOF  3
   INSTANCE: CUBE_ASSEMBLY                                                                   
          THE FORCE     EQUILIBRIUM EQUATIONS HAVE CONVERGED

 AVERAGE HEAT FLUX                  1.126E-04   TIME AVG. HEAT FLUX   1.319E-04
 LARGEST RESIDUAL HEAT FLUX        -9.225E-07   AT NODE          4   DOF 11
   INSTANCE: CUBE_ASSEMBLY                                                                   
 LARGEST INCREMENT OF TEMP.         0.537       AT NODE          4   DOF 11
   INSTANCE: CUBE_ASSEMBLY                                                                   
 LARGEST CORRECTION TO TEMP.       -1.041E-02   AT NODE          6   DOF 11
   INSTANCE: CUBE_ASSEMBLY                                                                   
          HEAT FLUX EQUILIBRIUM NOT ACHIEVED WITHIN TOLERANCE.
 
	UNSYMMETRIC NEW DIRECT SPARSE SOLVER RUNNING ON
 	1 HOST x 1 MPI RANK PER HOST x 1 THREAD PER RANK
        NUMBER OF EQUATIONS:  32
        NUMBER OF RHS:        1
        NUMBER OF FLOPS:      2.189e+04
        SOLVER ELAPSED TIME:  1ms

               CONVERGENCE CHECKS FOR EQUILIBRIUM ITERATION     2


 AVERAGE FORCE                      7.128E+03   TIME AVG. FORCE       3.961E+03
 LARGEST SCALED RESIDUAL FORCE      4.383E-11   AT NODE          2   DOF  3
   INSTANCE: CUBE_ASSEMBLY                                                                   
  CORRESPONDING RESIDUAL FORCE      4.383E-11
 LARGEST INCREMENT OF DISP.         1.000E-05   AT NODE          1   DOF  2
   INSTANCE: CUBE_ASSEMBLY                                                                   
 LARGEST CORRECTION TO DISP.        4.181E-13   AT NODE          5   DOF  3
   INSTANCE: CUBE_ASSEMBLY                                                                   
          THE FORCE     EQUILIBRIUM EQUATIONS HAVE CONVERGED

 AVERAGE HEAT FLUX                  1.122E-04   TIME AVG. HEAT FLUX   1.319E-04
 LARGEST RESIDUAL HEAT FLUX        -1.940E-07   AT NODE          8   DOF 11
   INSTANCE: CUBE_ASSEMBLY                                                                   
 LARGEST INCREMENT OF TEMP.         0.535       AT NODE          4   DOF 11
   INSTANCE: CUBE_ASSEMBLY                                                                   
 LARGEST CORRECTION TO TEMP.       -2.191E-03   AT NODE          4   DOF 11
   INSTANCE: CUBE_ASSEMBLY                                                                   
          THE HEAT FLUX EQUILIBRIUM EQUATIONS HAVE CONVERGED

 MAXIMUM NON-PRESCRIBED INCREMENT IN TEMPERATURE IS   0.535    

 ITERATION SUMMARY FOR THE INCREMENT:   2 TOTAL ITERATIONS, OF WHICH
   0 ARE SEVERE DISCONTINUITY ITERATIONS AND  2 ARE EQUILIBRIUM ITERATIONS.

 TIME INCREMENT COMPLETED   1.00    ,  FRACTION OF STEP COMPLETED  0.160    
 STEP TIME COMPLETED        16.0    ,  TOTAL TIME COMPLETED         16.0    


  INCREMENT    17 STARTS. ATTEMPT NUMBER  1, TIME INCREMENT   1.00    
 
	UNSYMMETRIC NEW DIRECT SPARSE SOLVER RUNNING ON
 	1 HOST x 1 MPI RANK PER HOST x 1 THREAD PER RANK
        NUMBER OF EQUATIONS:  32
        NUMBER OF RHS:        1
        NUMBER OF FLOPS:      2.189e+04
        SOLVER ELAPSED TIME:  1ms

               CONVERGENCE CHECKS FOR EQUILIBRIUM ITERATION     1


 AVERAGE FORCE                      7.502E+03   TIME AVG. FORCE       4.169E+03
 LARGEST SCALED RESIDUAL FORCE      4.758E-05   AT NODE          2   DOF  1
   INSTANCE: CUBE_ASSEMBLY                                                                   
  CORRESPONDING RESIDUAL FORCE      4.758E-05
 LARGEST INCREMENT OF DISP.         1.000E-05   AT NODE          1   DOF  2
   INSTANCE: CUBE_ASSEMBLY                                                                   
 LARGEST CORRECTION TO DISP.        2.772E-08   AT NODE          5   DOF  3
   INSTANCE: CUBE_ASSEMBLY                                                                   
          THE FORCE     EQUILIBRIUM EQUATIONS HAVE CONVERGED

 AVERAGE HEAT FLUX                  1.104E-04   TIME AVG. HEAT FLUX   1.306E-04
 LARGEST RESIDUAL HEAT FLUX        -8.948E-07   AT NODE          4   DOF 11
   INSTANCE: CUBE_ASSEMBLY                                                                   
 LARGEST INCREMENT OF TEMP.         0.525       AT NODE          4   DOF 11
   INSTANCE: CUBE_ASSEMBLY                                                                   
 LARGEST CORRECTION TO TEMP.       -1.007E-02   AT NODE          4   DOF 11
   INSTANCE: CUBE_ASSEMBLY                                                                   
          HEAT FLUX EQUILIBRIUM NOT ACHIEVED WITHIN TOLERANCE.
 
	UNSYMMETRIC NEW DIRECT SPARSE SOLVER RUNNING ON
 	1 HOST x 1 MPI RANK PER HOST x 1 THREAD PER RANK
        NUMBER OF EQUATIONS:  32
        NUMBER OF RHS:        1
        NUMBER OF FLOPS:      2.189e+04
        SOLVER ELAPSED TIME:  1ms

               CONVERGENCE CHECKS FOR EQUILIBRIUM ITERATION     2


 AVERAGE FORCE                      7.502E+03   TIME AVG. FORCE       4.169E+03
 LARGEST SCALED RESIDUAL FORCE     -4.297E-11   AT NODE          2   DOF  1
   INSTANCE: CUBE_ASSEMBLY                                                                   
  CORRESPONDING RESIDUAL FORCE     -4.297E-11
 LARGEST INCREMENT OF DISP.         1.000E-05   AT NODE          1   DOF  2
   INSTANCE: CUBE_ASSEMBLY                                                                   
 LARGEST CORRECTION TO DISP.        4.028E-13   AT NODE          2   DOF  1
   INSTANCE: CUBE_ASSEMBLY                                                                   
          THE FORCE     EQUILIBRIUM EQUATIONS HAVE CONVERGED

 AVERAGE HEAT FLUX                  1.100E-04   TIME AVG. HEAT FLUX   1.306E-04
 LARGEST RESIDUAL HEAT FLUX        -1.882E-07   AT NODE          4   DOF 11
   INSTANCE: CUBE_ASSEMBLY                                                                   
 LARGEST INCREMENT OF TEMP.         0.523       AT NODE          4   DOF 11
   INSTANCE: CUBE_ASSEMBLY                                                                   
 LARGEST CORRECTION TO TEMP.       -2.118E-03   AT NODE          4   DOF 11
   INSTANCE: CUBE_ASSEMBLY                                                                   
          THE HEAT FLUX EQUILIBRIUM EQUATIONS HAVE CONVERGED

 MAXIMUM NON-PRESCRIBED INCREMENT IN TEMPERATURE IS   0.523    

 ITERATION SUMMARY FOR THE INCREMENT:   2 TOTAL ITERATIONS, OF WHICH
   0 ARE SEVERE DISCONTINUITY ITERATIONS AND  2 ARE EQUILIBRIUM ITERATIONS.

 TIME INCREMENT COMPLETED   1.00    ,  FRACTION OF STEP COMPLETED  0.170    
 STEP TIME COMPLETED        17.0    ,  TOTAL TIME COMPLETED         17.0    


  INCREMENT    18 STARTS. ATTEMPT NUMBER  1, TIME INCREMENT   1.00    
 
	UNSYMMETRIC NEW DIRECT SPARSE SOLVER RUNNING ON
 	1 HOST x 1 MPI RANK PER HOST x 1 THREAD PER RANK
        NUMBER OF EQUATIONS:  32
        NUMBER OF RHS:        1
        NUMBER OF FLOPS:      2.189e+04
        SOLVER ELAPSED TIME:  1ms

               CONVERGENCE CHECKS FOR EQUILIBRIUM ITERATION     1


 AVERAGE FORCE                      7.868E+03   TIME AVG. FORCE       4.374E+03
 LARGEST SCALED RESIDUAL FORCE      4.625E-05   AT NODE          3   DOF  1
   INSTANCE: CUBE_ASSEMBLY                                                                   
  CORRESPONDING RESIDUAL FORCE      4.625E-05
 LARGEST INCREMENT OF DISP.         1.000E-05   AT NODE          1   DOF  2
   INSTANCE: CUBE_ASSEMBLY                                                                   
 LARGEST CORRECTION TO DISP.        2.718E-08   AT NODE          1   DOF  3
   INSTANCE: CUBE_ASSEMBLY                                                                   
          THE FORCE     EQUILIBRIUM EQUATIONS HAVE CONVERGED

 AVERAGE HEAT FLUX                  1.083E-04   TIME AVG. HEAT FLUX   1.294E-04
 LARGEST RESIDUAL HEAT FLUX        -8.682E-07   AT NODE          4   DOF 11
   INSTANCE: CUBE_ASSEMBLY                                                                   
 LARGEST INCREMENT OF TEMP.         0.513       AT NODE          4   DOF 11
   INSTANCE: CUBE_ASSEMBLY                                                                   
 LARGEST CORRECTION TO TEMP.       -9.734E-03   AT NODE          8   DOF 11
   INSTANCE: CUBE_ASSEMBLY                                                                   
          HEAT FLUX EQUILIBRIUM NOT ACHIEVED WITHIN TOLERANCE.
 
	UNSYMMETRIC NEW DIRECT SPARSE SOLVER RUNNING ON
 	1 HOST x 1 MPI RANK PER HOST x 1 THREAD PER RANK
        NUMBER OF EQUATIONS:  32
        NUMBER OF RHS:        1
        NUMBER OF FLOPS:      2.189e+04
        SOLVER ELAPSED TIME:  1ms

               CONVERGENCE CHECKS FOR EQUILIBRIUM ITERATION     2


 AVERAGE FORCE                      7.868E+03   TIME AVG. FORCE       4.374E+03
 LARGEST SCALED RESIDUAL FORCE     -4.138E-11   AT NODE          3   DOF  1
   INSTANCE: CUBE_ASSEMBLY                                                                   
  CORRESPONDING RESIDUAL FORCE     -4.138E-11
 LARGEST INCREMENT OF DISP.         1.000E-05   AT NODE          1   DOF  2
   INSTANCE: CUBE_ASSEMBLY                                                                   
 LARGEST CORRECTION TO DISP.        3.882E-13   AT NODE          3   DOF  1
   INSTANCE: CUBE_ASSEMBLY                                                                   
          THE FORCE     EQUILIBRIUM EQUATIONS HAVE CONVERGED

 AVERAGE HEAT FLUX                  1.079E-04   TIME AVG. HEAT FLUX   1.293E-04
 LARGEST RESIDUAL HEAT FLUX        -1.826E-07   AT NODE          8   DOF 11
   INSTANCE: CUBE_ASSEMBLY                                                                   
 LARGEST INCREMENT OF TEMP.         0.511       AT NODE          6   DOF 11
   INSTANCE: CUBE_ASSEMBLY                                                                   
 LARGEST CORRECTION TO TEMP.       -2.048E-03   AT NODE          4   DOF 11
   INSTANCE: CUBE_ASSEMBLY                                                                   
          THE HEAT FLUX EQUILIBRIUM EQUATIONS HAVE CONVERGED

 MAXIMUM NON-PRESCRIBED INCREMENT IN TEMPERATURE IS   0.511    

 ITERATION SUMMARY FOR THE INCREMENT:   2 TOTAL ITERATIONS, OF WHICH
   0 ARE SEVERE DISCONTINUITY ITERATIONS AND  2 ARE EQUILIBRIUM ITERATIONS.

 TIME INCREMENT COMPLETED   1.00    ,  FRACTION OF STEP COMPLETED  0.180    
 STEP TIME COMPLETED        18.0    ,  TOTAL TIME COMPLETED         18.0    


  INCREMENT    19 STARTS. ATTEMPT NUMBER  1, TIME INCREMENT   1.00    
 
	UNSYMMETRIC NEW DIRECT SPARSE SOLVER RUNNING ON
 	1 HOST x 1 MPI RANK PER HOST x 1 THREAD PER RANK
        NUMBER OF EQUATIONS:  32
        NUMBER OF RHS:        1
        NUMBER OF FLOPS:      2.189e+04
        SOLVER ELAPSED TIME:  1ms

               CONVERGENCE CHECKS FOR EQUILIBRIUM ITERATION     1


 AVERAGE FORCE                      8.227E+03   TIME AVG. FORCE       4.577E+03
 LARGEST SCALED RESIDUAL FORCE      4.496E-05   AT NODE          2   DOF  1
   INSTANCE: CUBE_ASSEMBLY                                                                   
  CORRESPONDING RESIDUAL FORCE      4.496E-05
 LARGEST INCREMENT OF DISP.         1.000E-05   AT NODE          1   DOF  2
   INSTANCE: CUBE_ASSEMBLY                                                                   
 LARGEST CORRECTION TO DISP.        2.665E-08   AT NODE          6   DOF  3
   INSTANCE: CUBE_ASSEMBLY                                                                   
          THE FORCE     EQUILIBRIUM RESPONSE WAS LINEAR IN THIS INCREMENT

 AVERAGE HEAT FLUX                  1.062E-04   TIME AVG. HEAT FLUX   1.281E-04
 LARGEST RESIDUAL HEAT FLUX        -8.426E-07   AT NODE          6   DOF 11
   INSTANCE: CUBE_ASSEMBLY                                                                   
 LARGEST INCREMENT OF TEMP.         0.502       AT NODE          4   DOF 11
   INSTANCE: CUBE_ASSEMBLY                                                                   
 LARGEST CORRECTION TO TEMP.       -9.416E-03   AT NODE          6   DOF 11
   INSTANCE: CUBE_ASSEMBLY                                                                   
          HEAT FLUX EQUILIBRIUM NOT ACHIEVED WITHIN TOLERANCE.
 
	UNSYMMETRIC NEW DIRECT SPARSE SOLVER RUNNING ON
 	1 HOST x 1 MPI RANK PER HOST x 1 THREAD PER RANK
        NUMBER OF EQUATIONS:  32
        NUMBER OF RHS:        1
        NUMBER OF FLOPS:      2.189e+04
        SOLVER ELAPSED TIME:  1ms

               CONVERGENCE CHECKS FOR EQUILIBRIUM ITERATION     2


[...]
 LARGEST CORRECTION TO DISP.        8.804E-09   AT NODE          6   DOF  3
   INSTANCE: CUBE_ASSEMBLY                                                                   
          THE FORCE     EQUILIBRIUM RESPONSE WAS LINEAR IN THIS INCREMENT

 AVERAGE HEAT FLUX                  3.824E-05   TIME AVG. HEAT FLUX   7.624E-05
 LARGEST RESIDUAL HEAT FLUX        -2.057E-07   AT NODE          4   DOF 11
   INSTANCE: CUBE_ASSEMBLY                                                                   
 LARGEST INCREMENT OF TEMP.         0.149       AT NODE          6   DOF 11
   INSTANCE: CUBE_ASSEMBLY                                                                   
 LARGEST CORRECTION TO TEMP.       -1.898E-03   AT NODE          4   DOF 11
   INSTANCE: CUBE_ASSEMBLY                                                                   
 ESTIMATE OF TEMP.    CORRECTION   -4.005E-04
 HEAT FLUX EQUILIB. ACCEPTED BASED ON SMALL RESIDUAL AND ESTIMATED CORRECTION

 MAXIMUM NON-PRESCRIBED INCREMENT IN TEMPERATURE IS   0.149    

 ITERATION SUMMARY FOR THE INCREMENT:   1 TOTAL ITERATIONS, OF WHICH
   0 ARE SEVERE DISCONTINUITY ITERATIONS AND  1 ARE EQUILIBRIUM ITERATIONS.

 TIME INCREMENT COMPLETED   1.00    ,  FRACTION OF STEP COMPLETED  0.920    
 STEP TIME COMPLETED        92.0    ,  TOTAL TIME COMPLETED         92.0    


  INCREMENT    93 STARTS. ATTEMPT NUMBER  1, TIME INCREMENT   1.00    
 
	UNSYMMETRIC NEW DIRECT SPARSE SOLVER RUNNING ON
 	1 HOST x 1 MPI RANK PER HOST x 1 THREAD PER RANK
        NUMBER OF EQUATIONS:  32
        NUMBER OF RHS:        1
        NUMBER OF FLOPS:      2.189e+04
        SOLVER ELAPSED TIME:  0ms

               CONVERGENCE CHECKS FOR EQUILIBRIUM ITERATION     1


 AVERAGE FORCE                      2.327E+04   TIME AVG. FORCE       1.469E+04
 LARGEST SCALED RESIDUAL FORCE      8.981E-06   AT NODE          4   DOF  1
   INSTANCE: CUBE_ASSEMBLY                                                                   
  CORRESPONDING RESIDUAL FORCE      8.981E-06
 LARGEST INCREMENT OF DISP.         1.000E-05   AT NODE          1   DOF  2
   INSTANCE: CUBE_ASSEMBLY                                                                   
 LARGEST CORRECTION TO DISP.        8.699E-09   AT NODE          2   DOF  3
   INSTANCE: CUBE_ASSEMBLY                                                                   
          THE FORCE     EQUILIBRIUM RESPONSE WAS LINEAR IN THIS INCREMENT

 AVERAGE HEAT FLUX                  3.784E-05   TIME AVG. HEAT FLUX   7.582E-05
 LARGEST RESIDUAL HEAT FLUX        -2.023E-07   AT NODE          4   DOF 11
   INSTANCE: CUBE_ASSEMBLY                                                                   
 LARGEST INCREMENT OF TEMP.         0.147       AT NODE          2   DOF 11
   INSTANCE: CUBE_ASSEMBLY                                                                   
 LARGEST CORRECTION TO TEMP.       -1.863E-03   AT NODE          6   DOF 11
   INSTANCE: CUBE_ASSEMBLY                                                                   
 ESTIMATE OF TEMP.    CORRECTION   -3.930E-04
 HEAT FLUX EQUILIB. ACCEPTED BASED ON SMALL RESIDUAL AND ESTIMATED CORRECTION

 MAXIMUM NON-PRESCRIBED INCREMENT IN TEMPERATURE IS   0.147    

 ITERATION SUMMARY FOR THE INCREMENT:   1 TOTAL ITERATIONS, OF WHICH
   0 ARE SEVERE DISCONTINUITY ITERATIONS AND  1 ARE EQUILIBRIUM ITERATIONS.

 TIME INCREMENT COMPLETED   1.00    ,  FRACTION OF STEP COMPLETED  0.930    
 STEP TIME COMPLETED        93.0    ,  TOTAL TIME COMPLETED         93.0    


  INCREMENT    94 STARTS. ATTEMPT NUMBER  1, TIME INCREMENT   1.00    
 
	UNSYMMETRIC NEW DIRECT SPARSE SOLVER RUNNING ON
 	1 HOST x 1 MPI RANK PER HOST x 1 THREAD PER RANK
        NUMBER OF EQUATIONS:  32
        NUMBER OF RHS:        1
        NUMBER OF FLOPS:      2.189e+04
        SOLVER ELAPSED TIME:  1ms

               CONVERGENCE CHECKS FOR EQUILIBRIUM ITERATION     1


 AVERAGE FORCE                      2.338E+04   TIME AVG. FORCE       1.478E+04
 LARGEST SCALED RESIDUAL FORCE      8.828E-06   AT NODE          4   DOF  1
   INSTANCE: CUBE_ASSEMBLY                                                                   
  CORRESPONDING RESIDUAL FORCE      8.828E-06
 LARGEST INCREMENT OF DISP.         1.000E-05   AT NODE          1   DOF  2
   INSTANCE: CUBE_ASSEMBLY                                                                   
 LARGEST CORRECTION TO DISP.        8.596E-09   AT NODE          1   DOF  3
   INSTANCE: CUBE_ASSEMBLY                                                                   
          THE FORCE     EQUILIBRIUM RESPONSE WAS LINEAR IN THIS INCREMENT

 AVERAGE HEAT FLUX                  3.745E-05   TIME AVG. HEAT FLUX   7.542E-05
 LARGEST RESIDUAL HEAT FLUX        -1.990E-07   AT NODE          2   DOF 11
   INSTANCE: CUBE_ASSEMBLY                                                                   
 LARGEST INCREMENT OF TEMP.         0.145       AT NODE          2   DOF 11
   INSTANCE: CUBE_ASSEMBLY                                                                   
 LARGEST CORRECTION TO TEMP.       -1.829E-03   AT NODE          4   DOF 11
   INSTANCE: CUBE_ASSEMBLY                                                                   
 ESTIMATE OF TEMP.    CORRECTION   -3.858E-04
 HEAT FLUX EQUILIB. ACCEPTED BASED ON SMALL RESIDUAL AND ESTIMATED CORRECTION

 MAXIMUM NON-PRESCRIBED INCREMENT IN TEMPERATURE IS   0.145    

 ITERATION SUMMARY FOR THE INCREMENT:   1 TOTAL ITERATIONS, OF WHICH
   0 ARE SEVERE DISCONTINUITY ITERATIONS AND  1 ARE EQUILIBRIUM ITERATIONS.

 TIME INCREMENT COMPLETED   1.00    ,  FRACTION OF STEP COMPLETED  0.940    
 STEP TIME COMPLETED        94.0    ,  TOTAL TIME COMPLETED         94.0    


  INCREMENT    95 STARTS. ATTEMPT NUMBER  1, TIME INCREMENT   1.00    
 
	UNSYMMETRIC NEW DIRECT SPARSE SOLVER RUNNING ON
 	1 HOST x 1 MPI RANK PER HOST x 1 THREAD PER RANK
        NUMBER OF EQUATIONS:  32
        NUMBER OF RHS:        1
        NUMBER OF FLOPS:      2.189e+04
        SOLVER ELAPSED TIME:  1ms

               CONVERGENCE CHECKS FOR EQUILIBRIUM ITERATION     1


 AVERAGE FORCE                      2.349E+04   TIME AVG. FORCE       1.487E+04
 LARGEST SCALED RESIDUAL FORCE      8.678E-06   AT NODE          3   DOF  1
   INSTANCE: CUBE_ASSEMBLY                                                                   
  CORRESPONDING RESIDUAL FORCE      8.678E-06
 LARGEST INCREMENT OF DISP.         1.000E-05   AT NODE          1   DOF  2
   INSTANCE: CUBE_ASSEMBLY                                                                   
 LARGEST CORRECTION TO DISP.        8.494E-09   AT NODE          5   DOF  3
   INSTANCE: CUBE_ASSEMBLY                                                                   
          THE FORCE     EQUILIBRIUM RESPONSE WAS LINEAR IN THIS INCREMENT

 AVERAGE HEAT FLUX                  3.706E-05   TIME AVG. HEAT FLUX   7.501E-05
 LARGEST RESIDUAL HEAT FLUX        -1.957E-07   AT NODE          4   DOF 11
   INSTANCE: CUBE_ASSEMBLY                                                                   
 LARGEST INCREMENT OF TEMP.         0.144       AT NODE          8   DOF 11
   INSTANCE: CUBE_ASSEMBLY                                                                   
 LARGEST CORRECTION TO TEMP.       -1.795E-03   AT NODE          4   DOF 11
   INSTANCE: CUBE_ASSEMBLY                                                                   
 ESTIMATE OF TEMP.    CORRECTION   -3.787E-04
 HEAT FLUX EQUILIB. ACCEPTED BASED ON SMALL RESIDUAL AND ESTIMATED CORRECTION

 MAXIMUM NON-PRESCRIBED INCREMENT IN TEMPERATURE IS   0.144    

 ITERATION SUMMARY FOR THE INCREMENT:   1 TOTAL ITERATIONS, OF WHICH
   0 ARE SEVERE DISCONTINUITY ITERATIONS AND  1 ARE EQUILIBRIUM ITERATIONS.

 TIME INCREMENT COMPLETED   1.00    ,  FRACTION OF STEP COMPLETED  0.950    
 STEP TIME COMPLETED        95.0    ,  TOTAL TIME COMPLETED         95.0    


  INCREMENT    96 STARTS. ATTEMPT NUMBER  1, TIME INCREMENT   1.00    
 
	UNSYMMETRIC NEW DIRECT SPARSE SOLVER RUNNING ON
 	1 HOST x 1 MPI RANK PER HOST x 1 THREAD PER RANK
        NUMBER OF EQUATIONS:  32
        NUMBER OF RHS:        1
        NUMBER OF FLOPS:      2.189e+04
        SOLVER ELAPSED TIME:  1ms

               CONVERGENCE CHECKS FOR EQUILIBRIUM ITERATION     1


 AVERAGE FORCE                      2.359E+04   TIME AVG. FORCE       1.497E+04
 LARGEST SCALED RESIDUAL FORCE      8.532E-06   AT NODE          1   DOF  3
   INSTANCE: CUBE_ASSEMBLY                                                                   
  CORRESPONDING RESIDUAL FORCE      8.532E-06
 LARGEST INCREMENT OF DISP.         1.000E-05   AT NODE          1   DOF  2
   INSTANCE: CUBE_ASSEMBLY                                                                   
 LARGEST CORRECTION TO DISP.        8.394E-09   AT NODE          2   DOF  3
   INSTANCE: CUBE_ASSEMBLY                                                                   
          THE FORCE     EQUILIBRIUM RESPONSE WAS LINEAR IN THIS INCREMENT

 AVERAGE HEAT FLUX                  3.668E-05   TIME AVG. HEAT FLUX   7.461E-05
 LARGEST RESIDUAL HEAT FLUX        -1.926E-07   AT NODE          6   DOF 11
   INSTANCE: CUBE_ASSEMBLY                                                                   
 LARGEST INCREMENT OF TEMP.         0.142       AT NODE          2   DOF 11
   INSTANCE: CUBE_ASSEMBLY                                                                   
 LARGEST CORRECTION TO TEMP.       -1.762E-03   AT NODE          8   DOF 11
   INSTANCE: CUBE_ASSEMBLY                                                                   
 ESTIMATE OF TEMP.    CORRECTION   -3.718E-04
 HEAT FLUX EQUILIB. ACCEPTED BASED ON SMALL RESIDUAL AND ESTIMATED CORRECTION

 MAXIMUM NON-PRESCRIBED INCREMENT IN TEMPERATURE IS   0.142    

 ITERATION SUMMARY FOR THE INCREMENT:   1 TOTAL ITERATIONS, OF WHICH
   0 ARE SEVERE DISCONTINUITY ITERATIONS AND  1 ARE EQUILIBRIUM ITERATIONS.

 TIME INCREMENT COMPLETED   1.00    ,  FRACTION OF STEP COMPLETED  0.960    
 STEP TIME COMPLETED        96.0    ,  TOTAL TIME COMPLETED         96.0    


  INCREMENT    97 STARTS. ATTEMPT NUMBER  1, TIME INCREMENT   1.00    
 
	UNSYMMETRIC NEW DIRECT SPARSE SOLVER RUNNING ON
 	1 HOST x 1 MPI RANK PER HOST x 1 THREAD PER RANK
        NUMBER OF EQUATIONS:  32
        NUMBER OF RHS:        1
        NUMBER OF FLOPS:      2.189e+04
        SOLVER ELAPSED TIME:  1ms

               CONVERGENCE CHECKS FOR EQUILIBRIUM ITERATION     1


 AVERAGE FORCE                      2.370E+04   TIME AVG. FORCE       1.506E+04
 LARGEST SCALED RESIDUAL FORCE      8.389E-06   AT NODE          5   DOF  3
   INSTANCE: CUBE_ASSEMBLY                                                                   
  CORRESPONDING RESIDUAL FORCE      8.389E-06
 LARGEST INCREMENT OF DISP.         1.000E-05   AT NODE          1   DOF  2
   INSTANCE: CUBE_ASSEMBLY                                                                   
 LARGEST CORRECTION TO DISP.        8.296E-09   AT NODE          1   DOF  3
   INSTANCE: CUBE_ASSEMBLY                                                                   
          THE FORCE     EQUILIBRIUM RESPONSE WAS LINEAR IN THIS INCREMENT

 AVERAGE HEAT FLUX                  3.631E-05   TIME AVG. HEAT FLUX   7.422E-05
 LARGEST RESIDUAL HEAT FLUX        -1.895E-07   AT NODE          6   DOF 11
   INSTANCE: CUBE_ASSEMBLY                                                                   
 LARGEST INCREMENT OF TEMP.         0.140       AT NODE          6   DOF 11
   INSTANCE: CUBE_ASSEMBLY                                                                   
 LARGEST CORRECTION TO TEMP.       -1.730E-03   AT NODE          4   DOF 11
   INSTANCE: CUBE_ASSEMBLY                                                                   
 ESTIMATE OF TEMP.    CORRECTION   -3.651E-04
 HEAT FLUX EQUILIB. ACCEPTED BASED ON SMALL RESIDUAL AND ESTIMATED CORRECTION

 MAXIMUM NON-PRESCRIBED INCREMENT IN TEMPERATURE IS   0.140    

 ITERATION SUMMARY FOR THE INCREMENT:   1 TOTAL ITERATIONS, OF WHICH
   0 ARE SEVERE DISCONTINUITY ITERATIONS AND  1 ARE EQUILIBRIUM ITERATIONS.

 TIME INCREMENT COMPLETED   1.00    ,  FRACTION OF STEP COMPLETED  0.970    
 STEP TIME COMPLETED        97.0    ,  TOTAL TIME COMPLETED         97.0    


  INCREMENT    98 STARTS. ATTEMPT NUMBER  1, TIME INCREMENT   1.00    
 
	UNSYMMETRIC NEW DIRECT SPARSE SOLVER RUNNING ON
 	1 HOST x 1 MPI RANK PER HOST x 1 THREAD PER RANK
        NUMBER OF EQUATIONS:  32
        NUMBER OF RHS:        1
        NUMBER OF FLOPS:      2.189e+04
        SOLVER ELAPSED TIME:  1ms

               CONVERGENCE CHECKS FOR EQUILIBRIUM ITERATION     1


 AVERAGE FORCE                      2.380E+04   TIME AVG. FORCE       1.514E+04
 LARGEST SCALED RESIDUAL FORCE      8.249E-06   AT NODE          3   DOF  1
   INSTANCE: CUBE_ASSEMBLY                                                                   
  CORRESPONDING RESIDUAL FORCE      8.249E-06
 LARGEST INCREMENT OF DISP.         1.000E-05   AT NODE          1   DOF  2
   INSTANCE: CUBE_ASSEMBLY                                                                   
 LARGEST CORRECTION TO DISP.        8.200E-09   AT NODE          5   DOF  3
   INSTANCE: CUBE_ASSEMBLY                                                                   
          THE FORCE     EQUILIBRIUM RESPONSE WAS LINEAR IN THIS INCREMENT

 AVERAGE HEAT FLUX                  3.594E-05   TIME AVG. HEAT FLUX   7.383E-05
 LARGEST RESIDUAL HEAT FLUX        -1.864E-07   AT NODE          6   DOF 11
   INSTANCE: CUBE_ASSEMBLY                                                                   
 LARGEST INCREMENT OF TEMP.         0.138       AT NODE          6   DOF 11
   INSTANCE: CUBE_ASSEMBLY                                                                   
 LARGEST CORRECTION TO TEMP.       -1.699E-03   AT NODE          4   DOF 11
   INSTANCE: CUBE_ASSEMBLY                                                                   
 ESTIMATE OF TEMP.    CORRECTION   -3.585E-04
 HEAT FLUX EQUILIB. ACCEPTED BASED ON SMALL RESIDUAL AND ESTIMATED CORRECTION

 MAXIMUM NON-PRESCRIBED INCREMENT IN TEMPERATURE IS   0.138    

 ITERATION SUMMARY FOR THE INCREMENT:   1 TOTAL ITERATIONS, OF WHICH
   0 ARE SEVERE DISCONTINUITY ITERATIONS AND  1 ARE EQUILIBRIUM ITERATIONS.

 TIME INCREMENT COMPLETED   1.00    ,  FRACTION OF STEP COMPLETED  0.980    
 STEP TIME COMPLETED        98.0    ,  TOTAL TIME COMPLETED         98.0    


  INCREMENT    99 STARTS. ATTEMPT NUMBER  1, TIME INCREMENT   1.00    
 
	UNSYMMETRIC NEW DIRECT SPARSE SOLVER RUNNING ON
 	1 HOST x 1 MPI RANK PER HOST x 1 THREAD PER RANK
        NUMBER OF EQUATIONS:  32
        NUMBER OF RHS:        1
        NUMBER OF FLOPS:      2.189e+04
        SOLVER ELAPSED TIME:  1ms

               CONVERGENCE CHECKS FOR EQUILIBRIUM ITERATION     1


 AVERAGE FORCE                      2.391E+04   TIME AVG. FORCE       1.523E+04
 LARGEST SCALED RESIDUAL FORCE      8.112E-06   AT NODE          5   DOF  3
   INSTANCE: CUBE_ASSEMBLY                                                                   
  CORRESPONDING RESIDUAL FORCE      8.112E-06
 LARGEST INCREMENT OF DISP.         1.000E-05   AT NODE          1   DOF  2
   INSTANCE: CUBE_ASSEMBLY                                                                   
 LARGEST CORRECTION TO DISP.        8.105E-09   AT NODE          1   DOF  3
   INSTANCE: CUBE_ASSEMBLY                                                                   
          THE FORCE     EQUILIBRIUM RESPONSE WAS LINEAR IN THIS INCREMENT

 AVERAGE HEAT FLUX                  3.558E-05   TIME AVG. HEAT FLUX   7.344E-05
 LARGEST RESIDUAL HEAT FLUX        -1.834E-07   AT NODE          4   DOF 11
   INSTANCE: CUBE_ASSEMBLY                                                                   
 LARGEST INCREMENT OF TEMP.         0.137       AT NODE          2   DOF 11
   INSTANCE: CUBE_ASSEMBLY                                                                   
 LARGEST CORRECTION TO TEMP.       -1.669E-03   AT NODE          4   DOF 11
   INSTANCE: CUBE_ASSEMBLY                                                                   
 ESTIMATE OF TEMP.    CORRECTION   -3.521E-04
 HEAT FLUX EQUILIB. ACCEPTED BASED ON SMALL RESIDUAL AND ESTIMATED CORRECTION

 MAXIMUM NON-PRESCRIBED INCREMENT IN TEMPERATURE IS   0.137    

 ITERATION SUMMARY FOR THE INCREMENT:   1 TOTAL ITERATIONS, OF WHICH
   0 ARE SEVERE DISCONTINUITY ITERATIONS AND  1 ARE EQUILIBRIUM ITERATIONS.

 TIME INCREMENT COMPLETED   1.00    ,  FRACTION OF STEP COMPLETED  0.990    
 STEP TIME COMPLETED        99.0    ,  TOTAL TIME COMPLETED         99.0    


  INCREMENT   100 STARTS. ATTEMPT NUMBER  1, TIME INCREMENT   1.00    
 
	UNSYMMETRIC NEW DIRECT SPARSE SOLVER RUNNING ON
 	1 HOST x 1 MPI RANK PER HOST x 1 THREAD PER RANK
        NUMBER OF EQUATIONS:  32
        NUMBER OF RHS:        1
        NUMBER OF FLOPS:      2.189e+04
        SOLVER ELAPSED TIME:  1ms

               CONVERGENCE CHECKS FOR EQUILIBRIUM ITERATION     1


 AVERAGE FORCE                      2.401E+04   TIME AVG. FORCE       1.532E+04
 LARGEST SCALED RESIDUAL FORCE      7.978E-06   AT NODE          5   DOF  3
   INSTANCE: CUBE_ASSEMBLY                                                                   
  CORRESPONDING RESIDUAL FORCE      7.978E-06
 LARGEST INCREMENT OF DISP.         1.000E-05   AT NODE          1   DOF  2
   INSTANCE: CUBE_ASSEMBLY                                                                   
 LARGEST CORRECTION TO DISP.        8.011E-09   AT NODE          2   DOF  3
   INSTANCE: CUBE_ASSEMBLY                                                                   
          THE FORCE     EQUILIBRIUM RESPONSE WAS LINEAR IN THIS INCREMENT

 AVERAGE HEAT FLUX                  3.522E-05   TIME AVG. HEAT FLUX   7.306E-05
 LARGEST RESIDUAL HEAT FLUX        -1.805E-07   AT NODE          4   DOF 11
   INSTANCE: CUBE_ASSEMBLY                                                                   
 LARGEST INCREMENT OF TEMP.         0.135       AT NODE          2   DOF 11
   INSTANCE: CUBE_ASSEMBLY                                                                   
 LARGEST CORRECTION TO TEMP.       -1.639E-03   AT NODE          6   DOF 11
   INSTANCE: CUBE_ASSEMBLY                                                                   
 ESTIMATE OF TEMP.    CORRECTION   -3.459E-04
 HEAT FLUX EQUILIB. ACCEPTED BASED ON SMALL RESIDUAL AND ESTIMATED CORRECTION

 MAXIMUM NON-PRESCRIBED INCREMENT IN TEMPERATURE IS   0.135    

 ITERATION SUMMARY FOR THE INCREMENT:   1 TOTAL ITERATIONS, OF WHICH
   0 ARE SEVERE DISCONTINUITY ITERATIONS AND  1 ARE EQUILIBRIUM ITERATIONS.

 TIME INCREMENT COMPLETED   1.00    ,  FRACTION OF STEP COMPLETED   1.00    
 STEP TIME COMPLETED        100.    ,  TOTAL TIME COMPLETED         100.    


          THE ANALYSIS HAS BEEN COMPLETED



     ANALYSIS SUMMARY:
     TOTAL OF        100  INCREMENTS
                       0  CUTBACKS IN AUTOMATIC INCREMENTATION
                     140  ITERATIONS INCLUDING CONTACT ITERATIONS IF PRESENT
                     140  PASSES THROUGH THE EQUATION SOLVER OF WHICH 
                     140  INVOLVE MATRIX DECOMPOSITION, INCLUDING
                       0  DECOMPOSITION(S) OF THE MASS MATRIX
                       1  REORDERING OF EQUATIONS TO MINIMIZE WAVEFRONT
                       0  ADDITIONAL RESIDUAL EVALUATIONS FOR LINE SEARCHES
                       0  ADDITIONAL OPERATOR EVALUATIONS FOR LINE SEARCHES
                       5  WARNING MESSAGES DURING USER INPUT PROCESSING
                       0  WARNING MESSAGES DURING ANALYSIS
                       0  ANALYSIS WARNINGS ARE NUMERICAL PROBLEM MESSAGES
                       0  ANALYSIS WARNINGS ARE NEGATIVE EIGENVALUE MESSAGES
                       0  ERROR MESSAGES



     JOB TIME SUMMARY
       USER TIME (SEC)      =      2.7    
       SYSTEM TIME (SEC)    =      2.0    
       TOTAL CPU TIME (SEC) =      4.7    
       WALLCLOCK TIME (SEC) =            9
       MEMORY PEAK (GB)     =            0
