1

   Abaqus 2023.HF4                                  Date 10-Apr-2025   Time 15:50:36
   For use by AALTO UNIVERSITY under license from Dassault Systemes or its subsidiary.

                                                                                 
                                                                                 
 STEP    1     INCREMENT     1     STEP TIME    0.00    


                        S T E P       1     C O U P L E D - T E M P E R A T U R E - D I S P L A C E M E N T   A N A L Y S I S


                                                                                          

     AUTOMATIC TIME CONTROL WITH -
          A SUGGESTED INITIAL TIME INCREMENT OF                1.000E+07
          AND A TOTAL TIME PERIOD OF                           1.000E+09
          THE MINIMUM TIME INCREMENT ALLOWED IS                1.000E-04
          THE MAXIMUM TIME INCREMENT ALLOWED IS                1.000E+07

          CREEP AND SWELLING EFFECTS ARE OMITTED IN THIS STEP

     THE SIZE OF THE TIME INCREMENT IS CONTROLLED BY -
          THE TEMPERATURE CHANGE PER INCREMENT NOT EXCEEDING           1.000E+05
          THE RATE DEPENDENCY WILL BE CONSIDERED IN THIS STEP

          CREEP AND SWELLING EFFECTS WILL BE IGNORED.

 CONVERGENCE TOLERANCE PARAMETERS FOR FORCE    
     CRITERION FOR RESIDUAL FORCE     FOR A NONLINEAR PROBLEM          5.000E-03
     CRITERION FOR DISP.    CORRECTION IN A NONLINEAR PROBLEM          1.000E-02
     INITIAL VALUE OF TIME AVERAGE FORCE                               1.000E-02
     AVERAGE FORCE     IS TIME AVERAGE FORCE    
     ALTERNATE CRIT. FOR RESIDUAL FORCE     FOR A NONLINEAR PROBLEM    2.000E-02
     CRITERION FOR ZERO FORCE     RELATIVE TO TIME AVRG. FORCE         1.000E-05
     CRITERION FOR RESIDUAL FORCE     WHEN THERE IS ZERO FLUX          1.000E-05
     CRITERION FOR DISP.    CORRECTION WHEN THERE IS ZERO FLUX         1.000E-03
     CRITERION FOR RESIDUAL FORCE     FOR A LINEAR INCREMENT           1.000E-08
     FIELD CONVERSION RATIO                                             1.00    
     CRITERION FOR ZERO FORCE     REL. TO TIME AVRG. MAX. FORCE        1.000E-05
     CRITERION FOR ZERO DISP.    RELATIVE TO CHARACTERISTIC LENGTH     1.000E-08

 CONVERGENCE TOLERANCE PARAMETERS FOR HEAT FLUX
     CRITERION FOR RESIDUAL HEAT FLUX FOR A NONLINEAR PROBLEM          5.000E-03
     CRITERION FOR TEMP.    CORRECTION IN A NONLINEAR PROBLEM          1.000E-02
     INITIAL VALUE OF TIME AVERAGE HEAT FLUX                           1.000E-02
     AVERAGE HEAT FLUX IS TIME AVERAGE HEAT FLUX
     ALTERNATE CRIT. FOR RESIDUAL HEAT FLUX FOR A NONLINEAR PROBLEM    2.000E-02
     CRITERION FOR ZERO HEAT FLUX RELATIVE TO TIME AVRG. HEAT FLUX     1.000E-05
     CRITERION FOR RESIDUAL HEAT FLUX WHEN THERE IS ZERO FLUX          1.000E-05
     CRITERION FOR TEMP.    CORRECTION WHEN THERE IS ZERO FLUX         1.000E-03
     CRITERION FOR RESIDUAL HEAT FLUX FOR A LINEAR INCREMENT           1.000E-08
     FIELD CONVERSION RATIO                                             1.00    
     CRITERION FOR ZERO HEAT FLUX REL. TO TIME AVRG. MAX. HEAT FLUX    1.000E-05

     VOLUMETRIC STRAIN COMPATIBILITY TOLERANCE FOR HYBRID SOLIDS       1.000E-05
     AXIAL STRAIN COMPATIBILITY TOLERANCE FOR HYBRID BEAMS             1.000E-05
     TRANS. SHEAR STRAIN COMPATIBILITY TOLERANCE FOR HYBRID BEAMS      1.000E-05
     SOFT CONTACT CONSTRAINT COMPATIBILITY TOLERANCE FOR P>P0          5.000E-03
     SOFT CONTACT CONSTRAINT COMPATIBILITY TOLERANCE FOR P=0.0         0.100    
     CONTACT FORCE ERROR TOLERANCE FOR CONVERT SDI=YES                 1.00    
     DISPLACEMENT COMPATIBILITY TOLERANCE FOR DCOUP ELEMENTS           1.000E-05
     ROTATION COMPATIBILITY TOLERANCE FOR DCOUP ELEMENTS               1.000E-05

 EQUILIBRIUM WILL BE CHECKED FOR SEVERE DISCONTINUITY ITERATIONS

 TIME INCREMENTATION CONTROL PARAMETERS:
     FIRST EQUILIBRIUM ITERATION FOR CONSECUTIVE DIVERGENCE CHECK              4
     EQUILIBRIUM ITERATION AT WHICH LOG. CONVERGENCE RATE CHECK BEGINS         8
     EQUILIBRIUM ITERATION AFTER WHICH ALTERNATE RESIDUAL IS USED              9
     MAXIMUM EQUILIBRIUM ITERATIONS ALLOWED                                   16
     EQUILIBRIUM ITERATION COUNT FOR CUT-BACK IN NEXT INCREMENT               10
     MAXIMUM EQUILIB. ITERS IN TWO INCREMENTS FOR TIME INCREMENT INCREASE      4
     MAXIMUM ITERATIONS FOR SEVERE DISCONTINUITIES                            50
     MAXIMUM ATTEMPTS ALLOWED IN AN INCREMENT                                  5
     MAXIMUM DISCON. ITERS IN TWO INCREMENTS FOR TIME INCREMENT INCREASE      50
     MAXIMUM CONTACT AUGMENTATIONS FOR *SURFACE BEHAVIOR,AUGMENTED LAGRANGE   50
     CONSECUTIVE INCS MEETING TIME INTEG. TOL. FOR TIME INC. INCREASE          3
     CUT-BACK FACTOR AFTER DIVERGENCE                                 0.2500    
     CUT-BACK FACTOR FOR TOO SLOW CONVERGENCE                         0.5000    
     CUT-BACK FACTOR AFTER TOO MANY EQUILIBRIUM ITERATIONS            0.7500    
     CUT-BACK FACTOR AFTER TOO MANY SEVERE DISCONTINUITY ITERATIONS   0.2500    
     CUT-BACK FACTOR AFTER PROBLEMS IN ELEMENT ASSEMBLY               0.2500    
     INCREASE FACTOR AFTER TWO INCREMENTS THAT CONVERGE QUICKLY        1.500    
     MAX. TIME INCREMENT INCREASE FACTOR ALLOWED                       1.500    
     MAX. TIME INCREMENT INCREASE FACTOR ALLOWED (DYNAMICS)            1.250    
     MAX. TIME INCREMENT INCREASE FACTOR ALLOWED (DIFFUSION)           2.000    
     MINIMUM TIME INCREMENT RATIO FOR EXTRAPOLATION TO OCCUR          0.1000    
     CUT-BACK FACTOR WHEN TIME INTEGRATION ACCURACY TOL. EXCEEDED     0.8500    
     MAX. RATIO OF TIME INTEG. MEASURE TO TOL. FOR TIME INC. INCREASE 0.7500    
     INCREASE FACTOR FOR TIME INCREMENT WHEN POSSIBLE                 0.8000    
     MIN. TIME INC. INCREASE FACTOR IN LINEAR TRANSIENT PROBLEMS      0.9500    
     MAX. RATIO OF TIME INCREMENT TO STABILITY LIMIT                   1.000    
     FRACTION OF STABILITY LIMIT FOR NEW TIME INCREMENT               0.9500    
     TIME INCREMENT INCREASE FACTOR BEFORE A TIME POINT                1.000    
     GLOBAL STABILIZATION CONTROL IS NOT USED

          PRINT OF INCREMENT NUMBER, TIME, ETC., EVERY    1  INCREMENTS

     THE MAXIMUM NUMBER OF INCREMENTS IN THIS STEP IS                 *******

          LARGE DISPLACEMENT THEORY WILL BE USED

          UNSYMMETRIC MATRIX STORAGE AND SOLUTION WILL BE USED

     LINEAR EXTRAPOLATION WILL BE USED

     CHARACTERISTIC ELEMENT LENGTH     9.764E-04

     DETAILS REGARDING ACTUAL SOLUTION WAVEFRONT REQUESTED

     DETAILED OUTPUT OF DIAGNOSTICS TO DATABASE REQUESTED

     PRINT OF INCREMENT NUMBER, TIME, ETC., TO THE MESSAGE FILE EVERY     1  INCREMENTS

     ELEMENT OPERATIONS WILL BE CARRIED OUT IN PARALLEL USING   2 THREADS ON 1 DOMAIN

     PARALLEL CONTACT TRACKING ENABLED


     COLLECTING MODEL CONSTRAINT INFORMATION FOR OVERCONSTRAINT CHECKS

     COLLECTING STEP CONSTRAINT INFORMATION FOR OVERCONSTRAINT CHECKS


  INCREMENT     1 STARTS. ATTEMPT NUMBER  1, TIME INCREMENT  1.000E+07
 
     INITIAL ELEMENT LOAD BALANCE
            DOMAIN    1     THREAD    NUMBER OF ELEMENTS
                              1            752
                              2            757
 
	UNSYMMETRIC NEW DIRECT SPARSE SOLVER RUNNING ON
 	1 HOST x 1 MPI RANK PER HOST x 2 THREADS PER RANK
        NUMBER OF EQUATIONS:  12864
        NUMBER OF RHS:        1
        NUMBER OF FLOPS:      9.247e+08
        SOLVER ELAPSED TIME:  240ms

               CONVERGENCE CHECKS FOR EQUILIBRIUM ITERATION     1


 AVERAGE FORCE                      0.399       TIME AVG. FORCE       0.399    
 LARGEST SCALED RESIDUAL FORCE      1.218E-05   AT NODE       2127   DOF  1
   INSTANCE: ELASTIC_PLATE_1                                                                 
  CORRESPONDING RESIDUAL FORCE      1.218E-05
 LARGEST INCREMENT OF DISP.         1.000E-06   AT NODE       2083   DOF  2
   INSTANCE: ELASTIC_PLATE_1                                                                 
 LARGEST CORRECTION TO DISP.        1.000E-06   AT NODE       2083   DOF  2
   INSTANCE: ELASTIC_PLATE_1                                                                 
          DISP.    CORRECTION TOO LARGE COMPARED TO DISP.    INCREMENT

 AVERAGE HEAT FLUX                  4.472E-09   TIME AVG. HEAT FLUX   1.000E-02
 LARGEST RESIDUAL HEAT FLUX        -5.954E-13   AT NODE       2218   DOF 11
   INSTANCE: ELASTIC_PLATE_1                                                                 
 LARGEST INCREMENT OF TEMP.          100.       AT NODE       2083   DOF 11
   INSTANCE: ELASTIC_PLATE_1                                                                 
 LARGEST CORRECTION TO TEMP.         100.       AT NODE       2083   DOF 11
   INSTANCE: ELASTIC_PLATE_1                                                                 
          THERE IS ZERO HEAT FLUX EVERYWHERE
 

 ***WARNING: THERE IS ZERO HEAT FLUX EVERYWHERE IN THE MODEL BASED ON THE 
             DEFAULT CRITERION. PLEASE CHECK THE VALUE OF THE AVERAGE HEAT FLUX 
             DURING THE CURRENT ITERATION TO VERIFY THAT THE HEAT FLUX IS SMALL 
             ENOUGH TO BE TREATED AS ZERO. IF NOT, PLEASE USE THE SOLUTION 
             CONTROLS TO RESET THE CRITERION FOR ZERO HEAT FLUX.
 
	UNSYMMETRIC NEW DIRECT SPARSE SOLVER RUNNING ON
 	1 HOST x 1 MPI RANK PER HOST x 2 THREADS PER RANK
        NUMBER OF EQUATIONS:  12864
        NUMBER OF RHS:        1
        NUMBER OF FLOPS:      9.247e+08
        SOLVER ELAPSED TIME:  39ms

               CONVERGENCE CHECKS FOR EQUILIBRIUM ITERATION     2


 AVERAGE FORCE                      0.399       TIME AVG. FORCE       0.399    
 LARGEST SCALED RESIDUAL FORCE      4.025E-10   AT NODE         55   DOF  2
   INSTANCE: ELASTIC_PLATE_1                                                                 
  CORRESPONDING RESIDUAL FORCE      4.025E-10
 LARGEST INCREMENT OF DISP.         1.000E-06   AT NODE       2083   DOF  2
   INSTANCE: ELASTIC_PLATE_1                                                                 
 LARGEST CORRECTION TO DISP.        4.498E-12   AT NODE       1764   DOF  1
   INSTANCE: ELASTIC_PLATE_1                                                                 
          THE FORCE     EQUILIBRIUM EQUATIONS HAVE CONVERGED

 AVERAGE HEAT FLUX                  4.472E-09   TIME AVG. HEAT FLUX   1.000E-02
 LARGEST RESIDUAL HEAT FLUX         2.550E-18   AT NODE       2538   DOF 11
   INSTANCE: ELASTIC_PLATE_1                                                                 
 LARGEST INCREMENT OF TEMP.          100.       AT NODE       2083   DOF 11
   INSTANCE: ELASTIC_PLATE_1                                                                 
 LARGEST CORRECTION TO TEMP.       -4.377E-04   AT NODE       2129   DOF 11
   INSTANCE: ELASTIC_PLATE_1                                                                 
          THERE IS ZERO HEAT FLUX EVERYWHERE
 

 ***WARNING: THERE IS ZERO HEAT FLUX EVERYWHERE IN THE MODEL BASED ON THE 
             DEFAULT CRITERION. PLEASE CHECK THE VALUE OF THE AVERAGE HEAT FLUX 
             DURING THE CURRENT ITERATION TO VERIFY THAT THE HEAT FLUX IS SMALL 
             ENOUGH TO BE TREATED AS ZERO. IF NOT, PLEASE USE THE SOLUTION 
             CONTROLS TO RESET THE CRITERION FOR ZERO HEAT FLUX.

 MAXIMUM NON-PRESCRIBED INCREMENT IN TEMPERATURE IS    77.9    

 ITERATION SUMMARY FOR THE INCREMENT:   2 TOTAL ITERATIONS, OF WHICH
   0 ARE SEVERE DISCONTINUITY ITERATIONS AND  2 ARE EQUILIBRIUM ITERATIONS.

 TIME INCREMENT COMPLETED  1.000E+07,  FRACTION OF STEP COMPLETED  1.000E-02
 STEP TIME COMPLETED       1.000E+07,  TOTAL TIME COMPLETED        1.000E+07


  INCREMENT     2 STARTS. ATTEMPT NUMBER  1, TIME INCREMENT  1.000E+07
 
	UNSYMMETRIC NEW DIRECT SPARSE SOLVER RUNNING ON
 	1 HOST x 1 MPI RANK PER HOST x 2 THREADS PER RANK
        NUMBER OF EQUATIONS:  12864
        NUMBER OF RHS:        1
        NUMBER OF FLOPS:      9.247e+08
        SOLVER ELAPSED TIME:  27ms

               CONVERGENCE CHECKS FOR EQUILIBRIUM ITERATION     1


 AVERAGE FORCE                      0.800       TIME AVG. FORCE       0.600    
 LARGEST SCALED RESIDUAL FORCE     -2.699E-10   AT NODE        929   DOF  1
   INSTANCE: ELASTIC_PLATE_1                                                                 
  CORRESPONDING RESIDUAL FORCE     -2.699E-10
 LARGEST INCREMENT OF DISP.         1.000E-06   AT NODE       2083   DOF  2
   INSTANCE: ELASTIC_PLATE_1                                                                 
 LARGEST CORRECTION TO DISP.        9.587E-12   AT NODE       1768   DOF  1
   INSTANCE: ELASTIC_PLATE_1                                                                 
          THE FORCE     EQUILIBRIUM RESPONSE WAS LINEAR IN THIS INCREMENT

 AVERAGE HEAT FLUX                  4.397E-09   TIME AVG. HEAT FLUX   1.000E-02
 LARGEST RESIDUAL HEAT FLUX         1.130E-18   AT NODE       2215   DOF 11
   INSTANCE: ELASTIC_PLATE_1                                                                 
 LARGEST INCREMENT OF TEMP.          18.3       AT NODE       2854   DOF 11
   INSTANCE: ELASTIC_PLATE_1                                                                 
 LARGEST CORRECTION TO TEMP.        -100.       AT NODE       2083   DOF 11
   INSTANCE: ELASTIC_PLATE_1                                                                 
          THERE IS ZERO HEAT FLUX EVERYWHERE
 

 ***WARNING: THERE IS ZERO HEAT FLUX EVERYWHERE IN THE MODEL BASED ON THE 
             DEFAULT CRITERION. PLEASE CHECK THE VALUE OF THE AVERAGE HEAT FLUX 
             DURING THE CURRENT ITERATION TO VERIFY THAT THE HEAT FLUX IS SMALL 
             ENOUGH TO BE TREATED AS ZERO. IF NOT, PLEASE USE THE SOLUTION 
             CONTROLS TO RESET THE CRITERION FOR ZERO HEAT FLUX.

 MAXIMUM NON-PRESCRIBED INCREMENT IN TEMPERATURE IS    18.3    

 ITERATION SUMMARY FOR THE INCREMENT:   1 TOTAL ITERATIONS, OF WHICH
   0 ARE SEVERE DISCONTINUITY ITERATIONS AND  1 ARE EQUILIBRIUM ITERATIONS.

 TIME INCREMENT COMPLETED  1.000E+07,  FRACTION OF STEP COMPLETED  2.000E-02
 STEP TIME COMPLETED       2.000E+07,  TOTAL TIME COMPLETED        2.000E+07


  INCREMENT     3 STARTS. ATTEMPT NUMBER  1, TIME INCREMENT  1.000E+07
 
	UNSYMMETRIC NEW DIRECT SPARSE SOLVER RUNNING ON
 	1 HOST x 1 MPI RANK PER HOST x 2 THREADS PER RANK
        NUMBER OF EQUATIONS:  12864
        NUMBER OF RHS:        1
        NUMBER OF FLOPS:      9.247e+08
        SOLVER ELAPSED TIME:  28ms

               CONVERGENCE CHECKS FOR EQUILIBRIUM ITERATION     1


 AVERAGE FORCE                       1.20       TIME AVG. FORCE       0.799    
 LARGEST SCALED RESIDUAL FORCE     -2.698E-10   AT NODE        929   DOF  1
   INSTANCE: ELASTIC_PLATE_1                                                                 
  CORRESPONDING RESIDUAL FORCE     -2.698E-10
 LARGEST INCREMENT OF DISP.         1.000E-06   AT NODE       2083   DOF  2
   INSTANCE: ELASTIC_PLATE_1                                                                 
 LARGEST CORRECTION TO DISP.        9.587E-12   AT NODE       1769   DOF  1
   INSTANCE: ELASTIC_PLATE_1                                                                 
          THE FORCE     EQUILIBRIUM RESPONSE WAS LINEAR IN THIS INCREMENT

 AVERAGE HEAT FLUX                  4.376E-09   TIME AVG. HEAT FLUX   1.000E-02
 LARGEST RESIDUAL HEAT FLUX         6.045E-19   AT NODE       2213   DOF 11
   INSTANCE: ELASTIC_PLATE_1                                                                 
 LARGEST INCREMENT OF TEMP.          10.4       AT NODE       2894   DOF 11
   INSTANCE: ELASTIC_PLATE_1                                                                 
 LARGEST CORRECTION TO TEMP.        -9.86       AT NODE       2130   DOF 11
   INSTANCE: ELASTIC_PLATE_1                                                                 
          THERE IS ZERO HEAT FLUX EVERYWHERE
 

 ***WARNING: THERE IS ZERO HEAT FLUX EVERYWHERE IN THE MODEL BASED ON THE 
             DEFAULT CRITERION. PLEASE CHECK THE VALUE OF THE AVERAGE HEAT FLUX 
             DURING THE CURRENT ITERATION TO VERIFY THAT THE HEAT FLUX IS SMALL 
             ENOUGH TO BE TREATED AS ZERO. IF NOT, PLEASE USE THE SOLUTION 
             CONTROLS TO RESET THE CRITERION FOR ZERO HEAT FLUX.

 MAXIMUM NON-PRESCRIBED INCREMENT IN TEMPERATURE IS    10.4    

 ITERATION SUMMARY FOR THE INCREMENT:   1 TOTAL ITERATIONS, OF WHICH
   0 ARE SEVERE DISCONTINUITY ITERATIONS AND  1 ARE EQUILIBRIUM ITERATIONS.

 TIME INCREMENT COMPLETED  1.000E+07,  FRACTION OF STEP COMPLETED  3.000E-02
 STEP TIME COMPLETED       3.000E+07,  TOTAL TIME COMPLETED        3.000E+07


  INCREMENT     4 STARTS. ATTEMPT NUMBER  1, TIME INCREMENT  1.000E+07
 
	UNSYMMETRIC NEW DIRECT SPARSE SOLVER RUNNING ON
 	1 HOST x 1 MPI RANK PER HOST x 2 THREADS PER RANK
        NUMBER OF EQUATIONS:  12864
        NUMBER OF RHS:        1
        NUMBER OF FLOPS:      9.247e+08
        SOLVER ELAPSED TIME:  29ms

               CONVERGENCE CHECKS FOR EQUILIBRIUM ITERATION     1


 AVERAGE FORCE                       1.60       TIME AVG. FORCE       0.999    
 LARGEST SCALED RESIDUAL FORCE     -2.698E-10   AT NODE         58   DOF  1
   INSTANCE: ELASTIC_PLATE_1                                                                 
  CORRESPONDING RESIDUAL FORCE     -2.698E-10
 LARGEST INCREMENT OF DISP.         1.000E-06   AT NODE       2083   DOF  2
   INSTANCE: ELASTIC_PLATE_1                                                                 
 LARGEST CORRECTION TO DISP.        9.586E-12   AT NODE       1768   DOF  1
   INSTANCE: ELASTIC_PLATE_1                                                                 
          THE FORCE     EQUILIBRIUM RESPONSE WAS LINEAR IN THIS INCREMENT

 AVERAGE HEAT FLUX                  4.333E-09   TIME AVG. HEAT FLUX   1.000E-02
 LARGEST RESIDUAL HEAT FLUX         4.495E-19   AT NODE       2167   DOF 11
   INSTANCE: ELASTIC_PLATE_1                                                                 
 LARGEST INCREMENT OF TEMP.          7.33       AT NODE       2889   DOF 11
   INSTANCE: ELASTIC_PLATE_1                                                                 
 LARGEST CORRECTION TO TEMP.        -3.85       AT NODE       2143   DOF 11
   INSTANCE: ELASTIC_PLATE_1                                                                 
          THERE IS ZERO HEAT FLUX EVERYWHERE
 

 ***WARNING: THERE IS ZERO HEAT FLUX EVERYWHERE IN THE MODEL BASED ON THE 
             DEFAULT CRITERION. PLEASE CHECK THE VALUE OF THE AVERAGE HEAT FLUX 
             DURING THE CURRENT ITERATION TO VERIFY THAT THE HEAT FLUX IS SMALL 
             ENOUGH TO BE TREATED AS ZERO. IF NOT, PLEASE USE THE SOLUTION 
             CONTROLS TO RESET THE CRITERION FOR ZERO HEAT FLUX.

 MAXIMUM NON-PRESCRIBED INCREMENT IN TEMPERATURE IS    7.33    

 ITERATION SUMMARY FOR THE INCREMENT:   1 TOTAL ITERATIONS, OF WHICH
   0 ARE SEVERE DISCONTINUITY ITERATIONS AND  1 ARE EQUILIBRIUM ITERATIONS.

 TIME INCREMENT COMPLETED  1.000E+07,  FRACTION OF STEP COMPLETED  4.000E-02
 STEP TIME COMPLETED       4.000E+07,  TOTAL TIME COMPLETED        4.000E+07


  INCREMENT     5 STARTS. ATTEMPT NUMBER  1, TIME INCREMENT  1.000E+07
 
	UNSYMMETRIC NEW DIRECT SPARSE SOLVER RUNNING ON
 	1 HOST x 1 MPI RANK PER HOST x 2 THREADS PER RANK
        NUMBER OF EQUATIONS:  12864
        NUMBER OF RHS:        1
        NUMBER OF FLOPS:      9.247e+08
        SOLVER ELAPSED TIME:  56ms

               CONVERGENCE CHECKS FOR EQUILIBRIUM ITERATION     1


 AVERAGE FORCE                       2.00       TIME AVG. FORCE        1.20    
 LARGEST SCALED RESIDUAL FORCE     -2.697E-10   AT NODE         58   DOF  1
   INSTANCE: ELASTIC_PLATE_1                                                                 
  CORRESPONDING RESIDUAL FORCE     -2.697E-10
 LARGEST INCREMENT OF DISP.         1.000E-06   AT NODE       2083   DOF  2
   INSTANCE: ELASTIC_PLATE_1                                                                 
 LARGEST CORRECTION TO DISP.        9.586E-12   AT NODE       1768   DOF  1
   INSTANCE: ELASTIC_PLATE_1                                                                 
          THE FORCE     EQUILIBRIUM RESPONSE WAS LINEAR IN THIS INCREMENT

 AVERAGE HEAT FLUX                  4.267E-09   TIME AVG. HEAT FLUX   1.000E-02
 LARGEST RESIDUAL HEAT FLUX         4.954E-19   AT NODE        768   DOF 11
   INSTANCE: ELASTIC_PLATE_1                                                                 
 LARGEST INCREMENT OF TEMP.          5.68       AT NODE       2848   DOF 11
   INSTANCE: ELASTIC_PLATE_1                                                                 
 LARGEST CORRECTION TO TEMP.        -2.05       AT NODE       2127   DOF 11
   INSTANCE: ELASTIC_PLATE_1                                                                 
          THERE IS ZERO HEAT FLUX EVERYWHERE
 

 ***WARNING: THERE IS ZERO HEAT FLUX EVERYWHERE IN THE MODEL BASED ON THE 
             DEFAULT CRITERION. PLEASE CHECK THE VALUE OF THE AVERAGE HEAT FLUX 
             DURING THE CURRENT ITERATION TO VERIFY THAT THE HEAT FLUX IS SMALL 
             ENOUGH TO BE TREATED AS ZERO. IF NOT, PLEASE USE THE SOLUTION 
             CONTROLS TO RESET THE CRITERION FOR ZERO HEAT FLUX.

 MAXIMUM NON-PRESCRIBED INCREMENT IN TEMPERATURE IS    5.68    

 ITERATION SUMMARY FOR THE INCREMENT:   1 TOTAL ITERATIONS, OF WHICH
   0 ARE SEVERE DISCONTINUITY ITERATIONS AND  1 ARE EQUILIBRIUM ITERATIONS.

 TIME INCREMENT COMPLETED  1.000E+07,  FRACTION OF STEP COMPLETED  5.000E-02
 STEP TIME COMPLETED       5.000E+07,  TOTAL TIME COMPLETED        5.000E+07


  INCREMENT     6 STARTS. ATTEMPT NUMBER  1, TIME INCREMENT  1.000E+07
 
	UNSYMMETRIC NEW DIRECT SPARSE SOLVER RUNNING ON
 	1 HOST x 1 MPI RANK PER HOST x 2 THREADS PER RANK
        NUMBER OF EQUATIONS:  12864
        NUMBER OF RHS:        1
        NUMBER OF FLOPS:      9.247e+08
        SOLVER ELAPSED TIME:  43ms

               CONVERGENCE CHECKS FOR EQUILIBRIUM ITERATION     1


 AVERAGE FORCE                       2.40       TIME AVG. FORCE        1.40    
 LARGEST SCALED RESIDUAL FORCE     -2.697E-10   AT NODE        929   DOF  1
   INSTANCE: ELASTIC_PLATE_1                                                                 
  CORRESPONDING RESIDUAL FORCE     -2.697E-10
 LARGEST INCREMENT OF DISP.         1.000E-06   AT NODE       2083   DOF  2
   INSTANCE: ELASTIC_PLATE_1                                                                 
 LARGEST CORRECTION TO DISP.        9.585E-12   AT NODE       1769   DOF  1
   INSTANCE: ELASTIC_PLATE_1                                                                 
          THE FORCE     EQUILIBRIUM RESPONSE WAS LINEAR IN THIS INCREMENT

 AVERAGE HEAT FLUX                  4.178E-09   TIME AVG. HEAT FLUX   1.000E-02
 LARGEST RESIDUAL HEAT FLUX         5.581E-19   AT NODE        768   DOF 11
   INSTANCE: ELASTIC_PLATE_1                                                                 
 LARGEST INCREMENT OF TEMP.          4.66       AT NODE       2882   DOF 11
   INSTANCE: ELASTIC_PLATE_1                                                                 
 LARGEST CORRECTION TO TEMP.        -1.25       AT NODE       2150   DOF 11
   INSTANCE: ELASTIC_PLATE_1                                                                 
          THERE IS ZERO HEAT FLUX EVERYWHERE
 

 ***WARNING: THERE IS ZERO HEAT FLUX EVERYWHERE IN THE MODEL BASED ON THE 
             DEFAULT CRITERION. PLEASE CHECK THE VALUE OF THE AVERAGE HEAT FLUX 
             DURING THE CURRENT ITERATION TO VERIFY THAT THE HEAT FLUX IS SMALL 
             ENOUGH TO BE TREATED AS ZERO. IF NOT, PLEASE USE THE SOLUTION 
             CONTROLS TO RESET THE CRITERION FOR ZERO HEAT FLUX.

 MAXIMUM NON-PRESCRIBED INCREMENT IN TEMPERATURE IS    4.66    

 ITERATION SUMMARY FOR THE INCREMENT:   1 TOTAL ITERATIONS, OF WHICH
   0 ARE SEVERE DISCONTINUITY ITERATIONS AND  1 ARE EQUILIBRIUM ITERATIONS.

 TIME INCREMENT COMPLETED  1.000E+07,  FRACTION OF STEP COMPLETED  6.000E-02
 STEP TIME COMPLETED       6.000E+07,  TOTAL TIME COMPLETED        6.000E+07


  INCREMENT     7 STARTS. ATTEMPT NUMBER  1, TIME INCREMENT  1.000E+07
 
	UNSYMMETRIC NEW DIRECT SPARSE SOLVER RUNNING ON
 	1 HOST x 1 MPI RANK PER HOST x 2 THREADS PER RANK
        NUMBER OF EQUATIONS:  12864
        NUMBER OF RHS:        1
        NUMBER OF FLOPS:      9.247e+08
        SOLVER ELAPSED TIME:  52ms

               CONVERGENCE CHECKS FOR EQUILIBRIUM ITERATION     1


 AVERAGE FORCE                       2.80       TIME AVG. FORCE        1.60    
 LARGEST SCALED RESIDUAL FORCE     -2.696E-10   AT NODE         58   DOF  1
   INSTANCE: ELASTIC_PLATE_1                                                                 
  CORRESPONDING RESIDUAL FORCE     -2.696E-10
 LARGEST INCREMENT OF DISP.         1.000E-06   AT NODE       2083   DOF  2
   INSTANCE: ELASTIC_PLATE_1                                                                 
 LARGEST CORRECTION TO DISP.        9.585E-12   AT NODE       1768   DOF  1
   INSTANCE: ELASTIC_PLATE_1                                                                 
          THE FORCE     EQUILIBRIUM RESPONSE WAS LINEAR IN THIS INCREMENT

 AVERAGE HEAT FLUX                  4.072E-09   TIME AVG. HEAT FLUX   1.000E-02
 LARGEST RESIDUAL HEAT FLUX         5.978E-19   AT NODE       1639   DOF 11
   INSTANCE: ELASTIC_PLATE_1                                                                 
 LARGEST INCREMENT OF TEMP.          4.00       AT NODE       2840   DOF 11
   INSTANCE: ELASTIC_PLATE_1                                                                 
 LARGEST CORRECTION TO TEMP.       -0.837       AT NODE       2168   DOF 11
   INSTANCE: ELASTIC_PLATE_1                                                                 
          THERE IS ZERO HEAT FLUX EVERYWHERE
 

 ***WARNING: THERE IS ZERO HEAT FLUX EVERYWHERE IN THE MODEL BASED ON THE 
             DEFAULT CRITERION. PLEASE CHECK THE VALUE OF THE AVERAGE HEAT FLUX 
             DURING THE CURRENT ITERATION TO VERIFY THAT THE HEAT FLUX IS SMALL 
             ENOUGH TO BE TREATED AS ZERO. IF NOT, PLEASE USE THE SOLUTION 
             CONTROLS TO RESET THE CRITERION FOR ZERO HEAT FLUX.

 MAXIMUM NON-PRESCRIBED INCREMENT IN TEMPERATURE IS    4.00    

 ITERATION SUMMARY FOR THE INCREMENT:   1 TOTAL ITERATIONS, OF WHICH
   0 ARE SEVERE DISCONTINUITY ITERATIONS AND  1 ARE EQUILIBRIUM ITERATIONS.

 TIME INCREMENT COMPLETED  1.000E+07,  FRACTION OF STEP COMPLETED  7.000E-02
 STEP TIME COMPLETED       7.000E+07,  TOTAL TIME COMPLETED        7.000E+07


  INCREMENT     8 STARTS. ATTEMPT NUMBER  1, TIME INCREMENT  1.000E+07
 
	UNSYMMETRIC NEW DIRECT SPARSE SOLVER RUNNING ON
 	1 HOST x 1 MPI RANK PER HOST x 2 THREADS PER RANK
        NUMBER OF EQUATIONS:  12864
        NUMBER OF RHS:        1
        NUMBER OF FLOPS:      9.247e+08
        SOLVER ELAPSED TIME:  34ms

               CONVERGENCE CHECKS FOR EQUILIBRIUM ITERATION     1


 AVERAGE FORCE                       3.20       TIME AVG. FORCE        1.80    
 LARGEST SCALED RESIDUAL FORCE     -2.696E-10   AT NODE         58   DOF  1
   INSTANCE: ELASTIC_PLATE_1                                                                 
  CORRESPONDING RESIDUAL FORCE     -2.696E-10
 LARGEST INCREMENT OF DISP.         1.000E-06   AT NODE       2083   DOF  2
   INSTANCE: ELASTIC_PLATE_1                                                                 
 LARGEST CORRECTION TO DISP.        9.584E-12   AT NODE       1769   DOF  1
   INSTANCE: ELASTIC_PLATE_1                                                                 
          THE FORCE     EQUILIBRIUM RESPONSE WAS LINEAR IN THIS INCREMENT

 AVERAGE HEAT FLUX                  3.953E-09   TIME AVG. HEAT FLUX   1.000E-02
 LARGEST RESIDUAL HEAT FLUX         6.193E-19   AT NODE       1639   DOF 11
   INSTANCE: ELASTIC_PLATE_1                                                                 
 LARGEST INCREMENT OF TEMP.          3.58       AT NODE       2842   DOF 11
   INSTANCE: ELASTIC_PLATE_1                                                                 
 LARGEST CORRECTION TO TEMP.       -0.591       AT NODE       2155   DOF 11
   INSTANCE: ELASTIC_PLATE_1                                                                 
          THERE IS ZERO HEAT FLUX EVERYWHERE
 

 ***WARNING: THERE IS ZERO HEAT FLUX EVERYWHERE IN THE MODEL BASED ON THE 
             DEFAULT CRITERION. PLEASE CHECK THE VALUE OF THE AVERAGE HEAT FLUX 
             DURING THE CURRENT ITERATION TO VERIFY THAT THE HEAT FLUX IS SMALL 
             ENOUGH TO BE TREATED AS ZERO. IF NOT, PLEASE USE THE SOLUTION 
             CONTROLS TO RESET THE CRITERION FOR ZERO HEAT FLUX.

 MAXIMUM NON-PRESCRIBED INCREMENT IN TEMPERATURE IS    3.58    

 ITERATION SUMMARY FOR THE INCREMENT:   1 TOTAL ITERATIONS, OF WHICH
   0 ARE SEVERE DISCONTINUITY ITERATIONS AND  1 ARE EQUILIBRIUM ITERATIONS.

 TIME INCREMENT COMPLETED  1.000E+07,  FRACTION OF STEP COMPLETED  8.000E-02
 STEP TIME COMPLETED       8.000E+07,  TOTAL TIME COMPLETED        8.000E+07


  INCREMENT     9 STARTS. ATTEMPT NUMBER  1, TIME INCREMENT  1.000E+07
 
	UNSYMMETRIC NEW DIRECT SPARSE SOLVER RUNNING ON
 	1 HOST x 1 MPI RANK PER HOST x 2 THREADS PER RANK
        NUMBER OF EQUATIONS:  12864
        NUMBER OF RHS:        1
        NUMBER OF FLOPS:      9.247e+08
        SOLVER ELAPSED TIME:  37ms

               CONVERGENCE CHECKS FOR EQUILIBRIUM ITERATION     1


 AVERAGE FORCE                       3.60       TIME AVG. FORCE        2.00    
 LARGEST SCALED RESIDUAL FORCE     -2.695E-10   AT NODE        929   DOF  1
   INSTANCE: ELASTIC_PLATE_1                                                                 
  CORRESPONDING RESIDUAL FORCE     -2.695E-10
 LARGEST INCREMENT OF DISP.         1.000E-06   AT NODE       2083   DOF  2
   INSTANCE: ELASTIC_PLATE_1                                                                 
 LARGEST CORRECTION TO DISP.        9.584E-12   AT NODE       1768   DOF  1
   INSTANCE: ELASTIC_PLATE_1                                                                 
          THE FORCE     EQUILIBRIUM RESPONSE WAS LINEAR IN THIS INCREMENT

 AVERAGE HEAT FLUX                  3.826E-09   TIME AVG. HEAT FLUX   1.000E-02
 LARGEST RESIDUAL HEAT FLUX         6.273E-19   AT NODE       1639   DOF 11
   INSTANCE: ELASTIC_PLATE_1                                                                 
 LARGEST INCREMENT OF TEMP.          3.30       AT NODE       2844   DOF 11
   INSTANCE: ELASTIC_PLATE_1                                                                 
 LARGEST CORRECTION TO TEMP.       -0.433       AT NODE       2166   DOF 11
   INSTANCE: ELASTIC_PLATE_1                                                                 
          THERE IS ZERO HEAT FLUX EVERYWHERE
 

 ***WARNING: THERE IS ZERO HEAT FLUX EVERYWHERE IN THE MODEL BASED ON THE 
             DEFAULT CRITERION. PLEASE CHECK THE VALUE OF THE AVERAGE HEAT FLUX 
             DURING THE CURRENT ITERATION TO VERIFY THAT THE HEAT FLUX IS SMALL 
             ENOUGH TO BE TREATED AS ZERO. IF NOT, PLEASE USE THE SOLUTION 
             CONTROLS TO RESET THE CRITERION FOR ZERO HEAT FLUX.

 MAXIMUM NON-PRESCRIBED INCREMENT IN TEMPERATURE IS    3.30    

 ITERATION SUMMARY FOR THE INCREMENT:   1 TOTAL ITERATIONS, OF WHICH
   0 ARE SEVERE DISCONTINUITY ITERATIONS AND  1 ARE EQUILIBRIUM ITERATIONS.

 TIME INCREMENT COMPLETED  1.000E+07,  FRACTION OF STEP COMPLETED  9.000E-02
 STEP TIME COMPLETED       9.000E+07,  TOTAL TIME COMPLETED        9.000E+07


  INCREMENT    10 STARTS. ATTEMPT NUMBER  1, TIME INCREMENT  1.000E+07
 
	UNSYMMETRIC NEW DIRECT SPARSE SOLVER RUNNING ON
 	1 HOST x 1 MPI RANK PER HOST x 2 THREADS PER RANK
        NUMBER OF EQUATIONS:  12864
        NUMBER OF RHS:        1
        NUMBER OF FLOPS:      9.247e+08
        SOLVER ELAPSED TIME:  38ms

               CONVERGENCE CHECKS FOR EQUILIBRIUM ITERATION     1


 AVERAGE FORCE                       4.00       TIME AVG. FORCE        2.20    
 LARGEST SCALED RESIDUAL FORCE     -2.695E-10   AT NODE         58   DOF  1
   INSTANCE: ELASTIC_PLATE_1                                                                 
  CORRESPONDING RESIDUAL FORCE     -2.695E-10
 LARGEST INCREMENT OF DISP.         1.000E-06   AT NODE       2083   DOF  2
   INSTANCE: ELASTIC_PLATE_1                                                                 
 LARGEST CORRECTION TO DISP.        9.583E-12   AT NODE       1768   DOF  1
   INSTANCE: ELASTIC_PLATE_1                                                                 
          THE FORCE     EQUILIBRIUM RESPONSE WAS LINEAR IN THIS INCREMENT

 AVERAGE HEAT FLUX                  3.693E-09   TIME AVG. HEAT FLUX   1.000E-02
 LARGEST RESIDUAL HEAT FLUX         6.259E-19   AT NODE        768   DOF 11
   INSTANCE: ELASTIC_PLATE_1                                                                 
 LARGEST INCREMENT OF TEMP.          3.14       AT NODE       2887   DOF 11
   INSTANCE: ELASTIC_PLATE_1                                                                 
 LARGEST CORRECTION TO TEMP.       -0.326       AT NODE       2896   DOF 11
   INSTANCE: ELASTIC_PLATE_1                                                                 
          THERE IS ZERO HEAT FLUX EVERYWHERE
 

 ***WARNING: THERE IS ZERO HEAT FLUX EVERYWHERE IN THE MODEL BASED ON THE 
             DEFAULT CRITERION. PLEASE CHECK THE VALUE OF THE AVERAGE HEAT FLUX 
             DURING THE CURRENT ITERATION TO VERIFY THAT THE HEAT FLUX IS SMALL 
             ENOUGH TO BE TREATED AS ZERO. IF NOT, PLEASE USE THE SOLUTION 
             CONTROLS TO RESET THE CRITERION FOR ZERO HEAT FLUX.

 MAXIMUM NON-PRESCRIBED INCREMENT IN TEMPERATURE IS    3.14    

 ITERATION SUMMARY FOR THE INCREMENT:   1 TOTAL ITERATIONS, OF WHICH
   0 ARE SEVERE DISCONTINUITY ITERATIONS AND  1 ARE EQUILIBRIUM ITERATIONS.

 TIME INCREMENT COMPLETED  1.000E+07,  FRACTION OF STEP COMPLETED  0.100    
 STEP TIME COMPLETED       1.000E+08,  TOTAL TIME COMPLETED        1.000E+08


  INCREMENT    11 STARTS. ATTEMPT NUMBER  1, TIME INCREMENT  1.000E+07
 
	UNSYMMETRIC NEW DIRECT SPARSE SOLVER RUNNING ON
 	1 HOST x 1 MPI RANK PER HOST x 2 THREADS PER RANK
        NUMBER OF EQUATIONS:  12864
        NUMBER OF RHS:        1
        NUMBER OF FLOPS:      9.247e+08
        SOLVER ELAPSED TIME:  41ms

               CONVERGENCE CHECKS FOR EQUILIBRIUM ITERATION     1


 AVERAGE FORCE                       4.40       TIME AVG. FORCE        2.40    
 LARGEST SCALED RESIDUAL FORCE     -2.694E-10   AT NODE         58   DOF  1
   INSTANCE: ELASTIC_PLATE_1                                                                 
  CORRESPONDING RESIDUAL FORCE     -2.694E-10
 LARGEST INCREMENT OF DISP.         1.000E-06   AT NODE       2083   DOF  2
   INSTANCE: ELASTIC_PLATE_1                                                                 
 LARGEST CORRECTION TO DISP.        9.583E-12   AT NODE       1769   DOF  1
   INSTANCE: ELASTIC_PLATE_1                                                                 
          THE FORCE     EQUILIBRIUM RESPONSE WAS LINEAR IN THIS INCREMENT

 AVERAGE HEAT FLUX                  3.559E-09   TIME AVG. HEAT FLUX   1.000E-02
 LARGEST RESIDUAL HEAT FLUX         6.175E-19   AT NODE       1639   DOF 11
   INSTANCE: ELASTIC_PLATE_1                                                                 
 LARGEST INCREMENT OF TEMP.          3.07       AT NODE         23   DOF 11
   INSTANCE: ELASTIC_PLATE_1                                                                 
 LARGEST CORRECTION TO TEMP.       -0.254       AT NODE       2839   DOF 11
   INSTANCE: ELASTIC_PLATE_1                                                                 
          THERE IS ZERO HEAT FLUX EVERYWHERE
 

 ***WARNING: THERE IS ZERO HEAT FLUX EVERYWHERE IN THE MODEL BASED ON THE 
             DEFAULT CRITERION. PLEASE CHECK THE VALUE OF THE AVERAGE HEAT FLUX 
             DURING THE CURRENT ITERATION TO VERIFY THAT THE HEAT FLUX IS SMALL 
             ENOUGH TO BE TREATED AS ZERO. IF NOT, PLEASE USE THE SOLUTION 
             CONTROLS TO RESET THE CRITERION FOR ZERO HEAT FLUX.

 MAXIMUM NON-PRESCRIBED INCREMENT IN TEMPERATURE IS    3.07    

 ITERATION SUMMARY FOR THE INCREMENT:   1 TOTAL ITERATIONS, OF WHICH
   0 ARE SEVERE DISCONTINUITY ITERATIONS AND  1 ARE EQUILIBRIUM ITERATIONS.

 TIME INCREMENT COMPLETED  1.000E+07,  FRACTION OF STEP COMPLETED  0.110    
 STEP TIME COMPLETED       1.100E+08,  TOTAL TIME COMPLETED        1.100E+08


  INCREMENT    12 STARTS. ATTEMPT NUMBER  1, TIME INCREMENT  1.000E+07
 
	UNSYMMETRIC NEW DIRECT SPARSE SOLVER RUNNING ON
 	1 HOST x 1 MPI RANK PER HOST x 2 THREADS PER RANK
        NUMBER OF EQUATIONS:  12864
        NUMBER OF RHS:        1
        NUMBER OF FLOPS:      9.247e+08
        SOLVER ELAPSED TIME:  32ms

               CONVERGENCE CHECKS FOR EQUILIBRIUM ITERATION     1


 AVERAGE FORCE                       4.80       TIME AVG. FORCE        2.60    
 LARGEST SCALED RESIDUAL FORCE     -2.694E-10   AT NODE        929   DOF  1
   INSTANCE: ELASTIC_PLATE_1                                                                 
  CORRESPONDING RESIDUAL FORCE     -2.694E-10
 LARGEST INCREMENT OF DISP.         1.000E-06   AT NODE       2083   DOF  2
   INSTANCE: ELASTIC_PLATE_1                                                                 
 LARGEST CORRECTION TO DISP.        9.583E-12   AT NODE       1768   DOF  1
   INSTANCE: ELASTIC_PLATE_1                                                                 
          THE FORCE     EQUILIBRIUM RESPONSE WAS LINEAR IN THIS INCREMENT

 AVERAGE HEAT FLUX                  3.425E-09   TIME AVG. HEAT FLUX   1.000E-02
 LARGEST RESIDUAL HEAT FLUX         6.045E-19   AT NODE        768   DOF 11
   INSTANCE: ELASTIC_PLATE_1                                                                 
 LARGEST INCREMENT OF TEMP.          3.03       AT NODE        105   DOF 11
   INSTANCE: ELASTIC_PLATE_1                                                                 
 LARGEST CORRECTION TO TEMP.       -0.203       AT NODE       2875   DOF 11
   INSTANCE: ELASTIC_PLATE_1                                                                 
          THERE IS ZERO HEAT FLUX EVERYWHERE
 

 ***WARNING: THERE IS ZERO HEAT FLUX EVERYWHERE IN THE MODEL BASED ON THE 
             DEFAULT CRITERION. PLEASE CHECK THE VALUE OF THE AVERAGE HEAT FLUX 
             DURING THE CURRENT ITERATION TO VERIFY THAT THE HEAT FLUX IS SMALL 
             ENOUGH TO BE TREATED AS ZERO. IF NOT, PLEASE USE THE SOLUTION 
             CONTROLS TO RESET THE CRITERION FOR ZERO HEAT FLUX.

 MAXIMUM NON-PRESCRIBED INCREMENT IN TEMPERATURE IS    3.03    

 ITERATION SUMMARY FOR THE INCREMENT:   1 TOTAL ITERATIONS, OF WHICH
   0 ARE SEVERE DISCONTINUITY ITERATIONS AND  1 ARE EQUILIBRIUM ITERATIONS.

 TIME INCREMENT COMPLETED  1.000E+07,  FRACTION OF STEP COMPLETED  0.120    
 STEP TIME COMPLETED       1.200E+08,  TOTAL TIME COMPLETED        1.200E+08


  INCREMENT    13 STARTS. ATTEMPT NUMBER  1, TIME INCREMENT  1.000E+07
 
	UNSYMMETRIC NEW DIRECT SPARSE SOLVER RUNNING ON
 	1 HOST x 1 MPI RANK PER HOST x 2 THREADS PER RANK
        NUMBER OF EQUATIONS:  12864
        NUMBER OF RHS:        1
        NUMBER OF FLOPS:      9.247e+08
        SOLVER ELAPSED TIME:  30ms

               CONVERGENCE CHECKS FOR EQUILIBRIUM ITERATION     1


 AVERAGE FORCE                       5.20       TIME AVG. FORCE        2.80    
 LARGEST SCALED RESIDUAL FORCE     -2.693E-10   AT NODE         58   DOF  1
   INSTANCE: ELASTIC_PLATE_1                                                                 
  CORRESPONDING RESIDUAL FORCE     -2.693E-10
 LARGEST INCREMENT OF DISP.         1.000E-06   AT NODE       2083   DOF  2
   INSTANCE: ELASTIC_PLATE_1                                                                 
 LARGEST CORRECTION TO DISP.        9.582E-12   AT NODE       1769   DOF  1
   INSTANCE: ELASTIC_PLATE_1                                                                 
          THE FORCE     EQUILIBRIUM RESPONSE WAS LINEAR IN THIS INCREMENT

 AVERAGE HEAT FLUX                  3.292E-09   TIME AVG. HEAT FLUX   1.000E-02
 LARGEST RESIDUAL HEAT FLUX         5.889E-19   AT NODE        768   DOF 11
   INSTANCE: ELASTIC_PLATE_1                                                                 
 LARGEST INCREMENT OF TEMP.          2.97       AT NODE         92   DOF 11
   INSTANCE: ELASTIC_PLATE_1                                                                 
 LARGEST CORRECTION TO TEMP.       -0.166       AT NODE       2840   DOF 11
   INSTANCE: ELASTIC_PLATE_1                                                                 
          THERE IS ZERO HEAT FLUX EVERYWHERE
 

 ***WARNING: THERE IS ZERO HEAT FLUX EVERYWHERE IN THE MODEL BASED ON THE 
             DEFAULT CRITERION. PLEASE CHECK THE VALUE OF THE AVERAGE HEAT FLUX 
             DURING THE CURRENT ITERATION TO VERIFY THAT THE HEAT FLUX IS SMALL 
             ENOUGH TO BE TREATED AS ZERO. IF NOT, PLEASE USE THE SOLUTION 
             CONTROLS TO RESET THE CRITERION FOR ZERO HEAT FLUX.

 MAXIMUM NON-PRESCRIBED INCREMENT IN TEMPERATURE IS    2.97    

 ITERATION SUMMARY FOR THE INCREMENT:   1 TOTAL ITERATIONS, OF WHICH
   0 ARE SEVERE DISCONTINUITY ITERATIONS AND  1 ARE EQUILIBRIUM ITERATIONS.

 TIME INCREMENT COMPLETED  1.000E+07,  FRACTION OF STEP COMPLETED  0.130    
 STEP TIME COMPLETED       1.300E+08,  TOTAL TIME COMPLETED        1.300E+08


  INCREMENT    14 STARTS. ATTEMPT NUMBER  1, TIME INCREMENT  1.000E+07
 
	UNSYMMETRIC NEW DIRECT SPARSE SOLVER RUNNING ON
 	1 HOST x 1 MPI RANK PER HOST x 2 THREADS PER RANK
        NUMBER OF EQUATIONS:  12864
        NUMBER OF RHS:        1
        NUMBER OF FLOPS:      9.247e+08
        SOLVER ELAPSED TIME:  29ms

               CONVERGENCE CHECKS FOR EQUILIBRIUM ITERATION     1


 AVERAGE FORCE                       5.60       TIME AVG. FORCE        3.00    
 LARGEST SCALED RESIDUAL FORCE     -2.693E-10   AT NODE        929   DOF  1
   INSTANCE: ELASTIC_PLATE_1                                                                 
  CORRESPONDING RESIDUAL FORCE     -2.693E-10
 LARGEST INCREMENT OF DISP.         1.000E-06   AT NODE       2083   DOF  2
   INSTANCE: ELASTIC_PLATE_1                                                                 
 LARGEST CORRECTION TO DISP.        9.582E-12   AT NODE       1769   DOF  1
   INSTANCE: ELASTIC_PLATE_1                                                                 
          THE FORCE     EQUILIBRIUM RESPONSE WAS LINEAR IN THIS INCREMENT

 AVERAGE HEAT FLUX                  3.162E-09   TIME AVG. HEAT FLUX   1.000E-02
 LARGEST RESIDUAL HEAT FLUX         5.705E-19   AT NODE        768   DOF 11
   INSTANCE: ELASTIC_PLATE_1                                                                 
 LARGEST INCREMENT OF TEMP.          2.90       AT NODE          7   DOF 11
   INSTANCE: ELASTIC_PLATE_1                                                                 
 LARGEST CORRECTION TO TEMP.       -0.141       AT NODE       2874   DOF 11
   INSTANCE: ELASTIC_PLATE_1                                                                 
          THERE IS ZERO HEAT FLUX EVERYWHERE
 

 ***WARNING: THERE IS ZERO HEAT FLUX EVERYWHERE IN THE MODEL BASED ON THE 
             DEFAULT CRITERION. PLEASE CHECK THE VALUE OF THE AVERAGE HEAT FLUX 
             DURING THE CURRENT ITERATION TO VERIFY THAT THE HEAT FLUX IS SMALL 
             ENOUGH TO BE TREATED AS ZERO. IF NOT, PLEASE USE THE SOLUTION 
             CONTROLS TO RESET THE CRITERION FOR ZERO HEAT FLUX.

 MAXIMUM NON-PRESCRIBED INCREMENT IN TEMPERATURE IS    2.90    

 ITERATION SUMMARY FOR THE INCREMENT:   1 TOTAL ITERATIONS, OF WHICH
   0 ARE SEVERE DISCONTINUITY ITERATIONS AND  1 ARE EQUILIBRIUM ITERATIONS.

 TIME INCREMENT COMPLETED  1.000E+07,  FRACTION OF STEP COMPLETED  0.140    
 STEP TIME COMPLETED       1.400E+08,  TOTAL TIME COMPLETED        1.400E+08


  INCREMENT    15 STARTS. ATTEMPT NUMBER  1, TIME INCREMENT  1.000E+07
 
	UNSYMMETRIC NEW DIRECT SPARSE SOLVER RUNNING ON
 	1 HOST x 1 MPI RANK PER HOST x 2 THREADS PER RANK
        NUMBER OF EQUATIONS:  12864
        NUMBER OF RHS:        1
        NUMBER OF FLOPS:      9.247e+08
        SOLVER ELAPSED TIME:  27ms

               CONVERGENCE CHECKS FOR EQUILIBRIUM ITERATION     1


 AVERAGE FORCE                       6.00       TIME AVG. FORCE        3.20    
 LARGEST SCALED RESIDUAL FORCE     -2.692E-10   AT NODE         58   DOF  1
   INSTANCE: ELASTIC_PLATE_1                                                                 
  CORRESPONDING RESIDUAL FORCE     -2.692E-10
 LARGEST INCREMENT OF DISP.         1.000E-06   AT NODE       2083   DOF  2
   INSTANCE: ELASTIC_PLATE_1                                                                 
 LARGEST CORRECTION TO DISP.        9.581E-12   AT NODE       1769   DOF  1
   INSTANCE: ELASTIC_PLATE_1                                                                 
          THE FORCE     EQUILIBRIUM RESPONSE WAS LINEAR IN THIS INCREMENT

 AVERAGE HEAT FLUX                  3.035E-09   TIME AVG. HEAT FLUX   1.000E-02
 LARGEST RESIDUAL HEAT FLUX         5.518E-19   AT NODE        768   DOF 11
   INSTANCE: ELASTIC_PLATE_1                                                                 
 LARGEST INCREMENT OF TEMP.          2.82       AT NODE       1762   DOF 11
   INSTANCE: ELASTIC_PLATE_1                                                                 
 LARGEST CORRECTION TO TEMP.       -0.123       AT NODE       2842   DOF 11
   INSTANCE: ELASTIC_PLATE_1                                                                 
          THERE IS ZERO HEAT FLUX EVERYWHERE
 

 ***WARNING: THERE IS ZERO HEAT FLUX EVERYWHERE IN THE MODEL BASED ON THE 
             DEFAULT CRITERION. PLEASE CHECK THE VALUE OF THE AVERAGE HEAT FLUX 
             DURING THE CURRENT ITERATION TO VERIFY THAT THE HEAT FLUX IS SMALL 
             ENOUGH TO BE TREATED AS ZERO. IF NOT, PLEASE USE THE SOLUTION 
             CONTROLS TO RESET THE CRITERION FOR ZERO HEAT FLUX.

 MAXIMUM NON-PRESCRIBED INCREMENT IN TEMPERATURE IS    2.82    

 ITERATION SUMMARY FOR THE INCREMENT:   1 TOTAL ITERATIONS, OF WHICH
   0 ARE SEVERE DISCONTINUITY ITERATIONS AND  1 ARE EQUILIBRIUM ITERATIONS.

 TIME INCREMENT COMPLETED  1.000E+07,  FRACTION OF STEP COMPLETED  0.150    
 STEP TIME COMPLETED       1.500E+08,  TOTAL TIME COMPLETED        1.500E+08


  INCREMENT    16 STARTS. ATTEMPT NUMBER  1, TIME INCREMENT  1.000E+07
 
	UNSYMMETRIC NEW DIRECT SPARSE SOLVER RUNNING ON
 	1 HOST x 1 MPI RANK PER HOST x 2 THREADS PER RANK
        NUMBER OF EQUATIONS:  12864
        NUMBER OF RHS:        1
        NUMBER OF FLOPS:      9.247e+08
        SOLVER ELAPSED TIME:  28ms

               CONVERGENCE CHECKS FOR EQUILIBRIUM ITERATION     1


 AVERAGE FORCE                       6.40       TIME AVG. FORCE        3.40    
 LARGEST SCALED RESIDUAL FORCE     -2.692E-10   AT NODE         58   DOF  1
   INSTANCE: ELASTIC_PLATE_1                                                                 
  CORRESPONDING RESIDUAL FORCE     -2.692E-10
 LARGEST INCREMENT OF DISP.         1.000E-06   AT NODE       2083   DOF  2
   INSTANCE: ELASTIC_PLATE_1                                                                 
 LARGEST CORRECTION TO DISP.        9.581E-12   AT NODE       1768   DOF  1
   INSTANCE: ELASTIC_PLATE_1                                                                 
          THE FORCE     EQUILIBRIUM RESPONSE WAS LINEAR IN THIS INCREMENT

 AVERAGE HEAT FLUX                  2.912E-09   TIME AVG. HEAT FLUX   1.000E-02
 LARGEST RESIDUAL HEAT FLUX         5.326E-19   AT NODE       1639   DOF 11
   INSTANCE: ELASTIC_PLATE_1                                                                 
 LARGEST INCREMENT OF TEMP.          2.73       AT NODE       1754   DOF 11
   INSTANCE: ELASTIC_PLATE_1                                                                 
 LARGEST CORRECTION TO TEMP.       -0.111       AT NODE       2843   DOF 11
   INSTANCE: ELASTIC_PLATE_1                                                                 
          THERE IS ZERO HEAT FLUX EVERYWHERE
 

 ***WARNING: THERE IS ZERO HEAT FLUX EVERYWHERE IN THE MODEL BASED ON THE 
             DEFAULT CRITERION. PLEASE CHECK THE VALUE OF THE AVERAGE HEAT FLUX 
             DURING THE CURRENT ITERATION TO VERIFY THAT THE HEAT FLUX IS SMALL 
             ENOUGH TO BE TREATED AS ZERO. IF NOT, PLEASE USE THE SOLUTION 
             CONTROLS TO RESET THE CRITERION FOR ZERO HEAT FLUX.

 MAXIMUM NON-PRESCRIBED INCREMENT IN TEMPERATURE IS    2.73    

 ITERATION SUMMARY FOR THE INCREMENT:   1 TOTAL ITERATIONS, OF WHICH
   0 ARE SEVERE DISCONTINUITY ITERATIONS AND  1 ARE EQUILIBRIUM ITERATIONS.

 TIME INCREMENT COMPLETED  1.000E+07,  FRACTION OF STEP COMPLETED  0.160    
 STEP TIME COMPLETED       1.600E+08,  TOTAL TIME COMPLETED        1.600E+08


  INCREMENT    17 STARTS. ATTEMPT NUMBER  1, TIME INCREMENT  1.000E+07
 
	UNSYMMETRIC NEW DIRECT SPARSE SOLVER RUNNING ON
 	1 HOST x 1 MPI RANK PER HOST x 2 THREADS PER RANK
        NUMBER OF EQUATIONS:  12864
        NUMBER OF RHS:        1
        NUMBER OF FLOPS:      9.247e+08
        SOLVER ELAPSED TIME:  29ms

               CONVERGENCE CHECKS FOR EQUILIBRIUM ITERATION     1


 AVERAGE FORCE                       6.80       TIME AVG. FORCE        3.60    
 LARGEST SCALED RESIDUAL FORCE     -2.691E-10   AT NODE         58   DOF  1
   INSTANCE: ELASTIC_PLATE_1                                                                 
  CORRESPONDING RESIDUAL FORCE     -2.691E-10
 LARGEST INCREMENT OF DISP.         1.000E-06   AT NODE       2083   DOF  2
   INSTANCE: ELASTIC_PLATE_1                                                                 
 LARGEST CORRECTION TO DISP.        9.580E-12   AT NODE       1768   DOF  1
   INSTANCE: ELASTIC_PLATE_1                                                                 
          THE FORCE     EQUILIBRIUM RESPONSE WAS LINEAR IN THIS INCREMENT

 AVERAGE HEAT FLUX                  2.793E-09   TIME AVG. HEAT FLUX   1.000E-02
 LARGEST RESIDUAL HEAT FLUX         5.123E-19   AT NODE        768   DOF 11
   INSTANCE: ELASTIC_PLATE_1                                                                 
 LARGEST INCREMENT OF TEMP.          2.63       AT NODE       1763   DOF 11
   INSTANCE: ELASTIC_PLATE_1                                                                 
 LARGEST CORRECTION TO TEMP.       -0.103       AT NODE       2872   DOF 11
   INSTANCE: ELASTIC_PLATE_1                                                                 
          THERE IS ZERO HEAT FLUX EVERYWHERE
 

 ***WARNING: THERE IS ZERO HEAT FLUX EVERYWHERE IN THE MODEL BASED ON THE 
             DEFAULT CRITERION. PLEASE CHECK THE VALUE OF THE AVERAGE HEAT FLUX 
             DURING THE CURRENT ITERATION TO VERIFY THAT THE HEAT FLUX IS SMALL 
             ENOUGH TO BE TREATED AS ZERO. IF NOT, PLEASE USE THE SOLUTION 
             CONTROLS TO RESET THE CRITERION FOR ZERO HEAT FLUX.

 MAXIMUM NON-PRESCRIBED INCREMENT IN TEMPERATURE IS    2.63    

 ITERATION SUMMARY FOR THE INCREMENT:   1 TOTAL ITERATIONS, OF WHICH
   0 ARE SEVERE DISCONTINUITY ITERATIONS AND  1 ARE EQUILIBRIUM ITERATIONS.

 TIME INCREMENT COMPLETED  1.000E+07,  FRACTION OF STEP COMPLETED  0.170    
 STEP TIME COMPLETED       1.700E+08,  TOTAL TIME COMPLETED        1.700E+08


  INCREMENT    18 STARTS. ATTEMPT NUMBER  1, TIME INCREMENT  1.000E+07
 
	UNSYMMETRIC NEW DIRECT SPARSE SOLVER RUNNING ON
 	1 HOST x 1 MPI RANK PER HOST x 2 THREADS PER RANK
        NUMBER OF EQUATIONS:  12864
        NUMBER OF RHS:        1
        NUMBER OF FLOPS:      9.247e+08
        SOLVER ELAPSED TIME:  26ms

               CONVERGENCE CHECKS FOR EQUILIBRIUM ITERATION     1


 AVERAGE FORCE                       7.20       TIME AVG. FORCE        3.80    
 LARGEST SCALED RESIDUAL FORCE     -2.690E-10   AT NODE         58   DOF  1
   INSTANCE: ELASTIC_PLATE_1                                                                 
  CORRESPONDING RESIDUAL FORCE     -2.690E-10
 LARGEST INCREMENT OF DISP.         1.000E-06   AT NODE       2083   DOF  2
   INSTANCE: ELASTIC_PLATE_1                                                                 
 LARGEST CORRECTION TO DISP.        9.580E-12   AT NODE       1768   DOF  1
   INSTANCE: ELASTIC_PLATE_1                                                                 
          THE FORCE     EQUILIBRIUM RESPONSE WAS LINEAR IN THIS INCREMENT

 AVERAGE HEAT FLUX                  2.678E-09   TIME AVG. HEAT FLUX   1.000E-02
 LARGEST RESIDUAL HEAT FLUX         4.935E-19   AT NODE       1639   DOF 11
   INSTANCE: ELASTIC_PLATE_1                                                                 
 LARGEST INCREMENT OF TEMP.          2.54       AT NODE       1812   DOF 11
   INSTANCE: ELASTIC_PLATE_1                                                                 
 LARGEST CORRECTION TO TEMP.       -9.860E-02   AT NODE        917   DOF 11
   INSTANCE: ELASTIC_PLATE_1                                                                 
          THERE IS ZERO HEAT FLUX EVERYWHERE
 

 ***WARNING: THERE IS ZERO HEAT FLUX EVERYWHERE IN THE MODEL BASED ON THE 
             DEFAULT CRITERION. PLEASE CHECK THE VALUE OF THE AVERAGE HEAT FLUX 
             DURING THE CURRENT ITERATION TO VERIFY THAT THE HEAT FLUX IS SMALL 
             ENOUGH TO BE TREATED AS ZERO. IF NOT, PLEASE USE THE SOLUTION 
             CONTROLS TO RESET THE CRITERION FOR ZERO HEAT FLUX.

 MAXIMUM NON-PRESCRIBED INCREMENT IN TEMPERATURE IS    2.54    

 ITERATION SUMMARY FOR THE INCREMENT:   1 TOTAL ITERATIONS, OF WHICH
   0 ARE SEVERE DISCONTINUITY ITERATIONS AND  1 ARE EQUILIBRIUM ITERATIONS.

 TIME INCREMENT COMPLETED  1.000E+07,  FRACTION OF STEP COMPLETED  0.180    
 STEP TIME COMPLETED       1.800E+08,  TOTAL TIME COMPLETED        1.800E+08


  INCREMENT    19 STARTS. ATTEMPT NUMBER  1, TIME INCREMENT  1.000E+07
 
	UNSYMMETRIC NEW DIRECT SPARSE SOLVER RUNNING ON
 	1 HOST x 1 MPI RANK PER HOST x 2 THREADS PER RANK
        NUMBER OF EQUATIONS:  12864
        NUMBER OF RHS:        1
        NUMBER OF FLOPS:      9.247e+08
        SOLVER ELAPSED TIME:  24ms

               CONVERGENCE CHECKS FOR EQUILIBRIUM ITERATION     1


 AVERAGE FORCE                       7.59       TIME AVG. FORCE        4.00    
 LARGEST SCALED RESIDUAL FORCE     -2.690E-10   AT NODE         58   DOF  1
   INSTANCE: ELASTIC_PLATE_1                                                                 
  CORRESPONDING RESIDUAL FORCE     -2.690E-10
 LARGEST INCREMENT OF DISP.         1.000E-06   AT NODE       2083   DOF  2
   INSTANCE: ELASTIC_PLATE_1                                                                 
 LARGEST CORRECTION TO DISP.        9.579E-12   AT NODE       1768   DOF  1
   INSTANCE: ELASTIC_PLATE_1                                                                 
          THE FORCE     EQUILIBRIUM RESPONSE WAS LINEAR IN THIS INCREMENT

 AVERAGE HEAT FLUX                  2.567E-09   TIME AVG. HEAT FLUX   1.000E-02
 LARGEST RESIDUAL HEAT FLUX         4.736E-19   AT NODE       1639   DOF 11
   INSTANCE: ELASTIC_PLATE_1                                                                 
 LARGEST INCREMENT OF TEMP.          2.44       AT NODE       1768   DOF 11
   INSTANCE: ELASTIC_PLATE_1                                                                 
 LARGEST CORRECTION TO TEMP.       -9.670E-02   AT NODE        874   DOF 11
   INSTANCE: ELASTIC_PLATE_1                                                                 
          THERE IS ZERO HEAT FLUX EVERYWHERE
 

 ***WARNING: THERE IS ZERO HEAT FLUX EVERYWHERE IN THE MODEL BASED ON THE 
             DEFAULT CRITERION. PLEASE CHECK THE VALUE OF THE AVERAGE HEAT FLUX 
             DURING THE CURRENT ITERATION TO VERIFY THAT THE HEAT FLUX IS SMALL 
             ENOUGH TO BE TREATED AS ZERO. IF NOT, PLEASE USE THE SOLUTION 
             CONTROLS TO RESET THE CRITERION FOR ZERO HEAT FLUX.

 MAXIMUM NON-PRESCRIBED INCREMENT IN TEMPERATURE IS    2.44    

 ITERATION SUMMARY FOR THE INCREMENT:   1 TOTAL ITERATIONS, OF WHICH
   0 ARE SEVERE DISCONTINUITY ITERATIONS AND  1 ARE EQUILIBRIUM ITERATIONS.

 TIME INCREMENT COMPLETED  1.000E+07,  FRACTION OF STEP COMPLETED  0.190    
 STEP TIME COMPLETED       1.900E+08,  TOTAL TIME COMPLETED        1.900E+08


  INCREMENT    20 STARTS. ATTEMPT NUMBER  1, TIME INCREMENT  1.000E+07
 
	UNSYMMETRIC NEW DIRECT SPARSE SOLVER RUNNING ON
 	1 HOST x 1 MPI RANK PER HOST x 2 THREADS PER RANK
        NUMBER OF EQUATIONS:  12864
        NUMBER OF RHS:        1
        NUMBER OF FLOPS:      9.247e+08
        SOLVER ELAPSED TIME:  25ms

               CONVERGENCE CHECKS FOR EQUILIBRIUM ITERATION     1


 AVERAGE FORCE                       7.99       TIME AVG. FORCE        4.20    
 LARGEST SCALED RESIDUAL FORCE     -2.689E-10   AT NODE        929   DOF  1
   INSTANCE: ELASTIC_PLATE_1                                                                 
  CORRESPONDING RESIDUAL FORCE     -2.689E-10
 LARGEST INCREMENT OF DISP.         1.000E-06   AT NODE       2083   DOF  2
   INSTANCE: ELASTIC_PLATE_1                                                                 
 LARGEST CORRECTION TO DISP.        9.579E-12   AT NODE       1769   DOF  1
   INSTANCE: ELASTIC_PLATE_1                                                                 
          THE FORCE     EQUILIBRIUM RESPONSE WAS LINEAR IN THIS INCREMENT

 AVERAGE HEAT FLUX                  2.461E-09   TIME AVG. HEAT FLUX   1.000E-02
 LARGEST RESIDUAL HEAT FLUX         4.546E-19   AT NODE       1639   DOF 11
   INSTANCE: ELASTIC_PLATE_1                                                                 
 LARGEST INCREMENT OF TEMP.          2.35       AT NODE       1769   DOF 11
   INSTANCE: ELASTIC_PLATE_1                                                                 
 LARGEST CORRECTION TO TEMP.       -9.524E-02   AT NODE        107   DOF 11
   INSTANCE: ELASTIC_PLATE_1                                                                 
          THERE IS ZERO HEAT FLUX EVERYWHERE
 

 ***WARNING: THERE IS ZERO HEAT FLUX EVERYWHERE IN THE MODEL BASED ON THE 
             DEFAULT CRITERION. PLEASE CHECK THE VALUE OF THE AVERAGE HEAT FLUX 
             DURING THE CURRENT ITERATION TO VERIFY THAT THE HEAT FLUX IS SMALL 
             ENOUGH TO BE TREATED AS ZERO. IF NOT, PLEASE USE THE SOLUTION 
             CONTROLS TO RESET THE CRITERION FOR ZERO HEAT FLUX.

 MAXIMUM NON-PRESCRIBED INCREMENT IN TEMPERATURE IS    2.35    

 ITERATION SUMMARY FOR THE INCREMENT:   1 TOTAL ITERATIONS, OF WHICH
   0 ARE SEVERE DISCONTINUITY ITERATIONS AND  1 ARE EQUILIBRIUM ITERATIONS.

 TIME INCREMENT COMPLETED  1.000E+07,  FRACTION OF STEP COMPLETED  0.200    
 STEP TIME COMPLETED       2.000E+08,  TOTAL TIME COMPLETED        2.000E+08


  INCREMENT    21 STARTS. ATTEMPT NUMBER  1, TIME INCREMENT  1.000E+07
 
	UNSYMMETRIC NEW DIRECT SPARSE SOLVER RUNNING ON
 	1 HOST x 1 MPI RANK PER HOST x 2 THREADS PER RANK
        NUMBER OF EQUATIONS:  12864
        NUMBER OF RHS:        1
        NUMBER OF FLOPS:      9.247e+08
        SOLVER ELAPSED TIME:  30ms

               CONVERGENCE CHECKS FOR EQUILIBRIUM ITERATION     1


 AVERAGE FORCE                       8.39       TIME AVG. FORCE        4.40    
 LARGEST SCALED RESIDUAL FORCE     -2.689E-10   AT NODE         58   DOF  1
   INSTANCE: ELASTIC_PLATE_1                                                                 
  CORRESPONDING RESIDUAL FORCE     -2.689E-10
 LARGEST INCREMENT OF DISP.         1.000E-06   AT NODE       2083   DOF  2
   INSTANCE: ELASTIC_PLATE_1                                                                 
 LARGEST CORRECTION TO DISP.        9.579E-12   AT NODE       1768   DOF  1
   INSTANCE: ELASTIC_PLATE_1                                                                 
          THE FORCE     EQUILIBRIUM RESPONSE WAS LINEAR IN THIS INCREMENT

 AVERAGE HEAT FLUX                  2.358E-09   TIME AVG. HEAT FLUX   1.000E-02
 LARGEST RESIDUAL HEAT FLUX         4.362E-19   AT NODE       1639   DOF 11
   INSTANCE: ELASTIC_PLATE_1                                                                 
 LARGEST INCREMENT OF TEMP.          2.26       AT NODE       1769   DOF 11
   INSTANCE: ELASTIC_PLATE_1                                                                 
 LARGEST CORRECTION TO TEMP.       -9.316E-02   AT NODE         98   DOF 11
   INSTANCE: ELASTIC_PLATE_1                                                                 
          THERE IS ZERO HEAT FLUX EVERYWHERE
 

 ***WARNING: THERE IS ZERO HEAT FLUX EVERYWHERE IN THE MODEL BASED ON THE 
             DEFAULT CRITERION. PLEASE CHECK THE VALUE OF THE AVERAGE HEAT FLUX 
             DURING THE CURRENT ITERATION TO VERIFY THAT THE HEAT FLUX IS SMALL 
             ENOUGH TO BE TREATED AS ZERO. IF NOT, PLEASE USE THE SOLUTION 
             CONTROLS TO RESET THE CRITERION FOR ZERO HEAT FLUX.

 MAXIMUM NON-PRESCRIBED INCREMENT IN TEMPERATURE IS    2.26    

 ITERATION SUMMARY FOR THE INCREMENT:   1 TOTAL ITERATIONS, OF WHICH
   0 ARE SEVERE DISCONTINUITY ITERATIONS AND  1 ARE EQUILIBRIUM ITERATIONS.

 TIME INCREMENT COMPLETED  1.000E+07,  FRACTION OF STEP COMPLETED  0.210    
 STEP TIME COMPLETED       2.100E+08,  TOTAL TIME COMPLETED        2.100E+08


  INCREMENT    22 STARTS. ATTEMPT NUMBER  1, TIME INCREMENT  1.000E+07
 
	UNSYMMETRIC NEW DIRECT SPARSE SOLVER RUNNING ON
 	1 HOST x 1 MPI RANK PER HOST x 2 THREADS PER RANK
        NUMBER OF EQUATIONS:  12864
        NUMBER OF RHS:        1
        NUMBER OF FLOPS:      9.247e+08
        SOLVER ELAPSED TIME:  29ms

               CONVERGENCE CHECKS FOR EQUILIBRIUM ITERATION     1


 AVERAGE FORCE                       8.79       TIME AVG. FORCE        4.60    
 LARGEST SCALED RESIDUAL FORCE     -2.688E-10   AT NODE        929   DOF  1
   INSTANCE: ELASTIC_PLATE_1                                                                 
  CORRESPONDING RESIDUAL FORCE     -2.688E-10
 LARGEST INCREMENT OF DISP.         1.000E-06   AT NODE       2083   DOF  2
   INSTANCE: ELASTIC_PLATE_1                                                                 
 LARGEST CORRECTION TO DISP.        9.578E-12   AT NODE       1768   DOF  1
   INSTANCE: ELASTIC_PLATE_1                                                                 
          THE FORCE     EQUILIBRIUM RESPONSE WAS LINEAR IN THIS INCREMENT

 AVERAGE HEAT FLUX                  2.260E-09   TIME AVG. HEAT FLUX   1.000E-02
 LARGEST RESIDUAL HEAT FLUX         4.187E-19   AT NODE       1639   DOF 11
   INSTANCE: ELASTIC_PLATE_1                                                                 
 LARGEST INCREMENT OF TEMP.          2.17       AT NODE       1768   DOF 11
   INSTANCE: ELASTIC_PLATE_1                                                                 
 LARGEST CORRECTION TO TEMP.       -9.064E-02   AT NODE         91   DOF 11
   INSTANCE: ELASTIC_PLATE_1                                                                 
          THERE IS ZERO HEAT FLUX EVERYWHERE
 

 ***WARNING: THERE IS ZERO HEAT FLUX EVERYWHERE IN THE MODEL BASED ON THE 
             DEFAULT CRITERION. PLEASE CHECK THE VALUE OF THE AVERAGE HEAT FLUX 
             DURING THE CURRENT ITERATION TO VERIFY THAT THE HEAT FLUX IS SMALL 
             ENOUGH TO BE TREATED AS ZERO. IF NOT, PLEASE USE THE SOLUTION 
             CONTROLS TO RESET THE CRITERION FOR ZERO HEAT FLUX.

 MAXIMUM NON-PRESCRIBED INCREMENT IN TEMPERATURE IS    2.17    

 ITERATION SUMMARY FOR THE INCREMENT:   1 TOTAL ITERATIONS, OF WHICH
   0 ARE SEVERE DISCONTINUITY ITERATIONS AND  1 ARE EQUILIBRIUM ITERATIONS.

 TIME INCREMENT COMPLETED  1.000E+07,  FRACTION OF STEP COMPLETED  0.220    
 STEP TIME COMPLETED       2.200E+08,  TOTAL TIME COMPLETED        2.200E+08


  INCREMENT    23 STARTS. ATTEMPT NUMBER  1, TIME INCREMENT  1.000E+07
 
	UNSYMMETRIC NEW DIRECT SPARSE SOLVER RUNNING ON
 	1 HOST x 1 MPI RANK PER HOST x 2 THREADS PER RANK
        NUMBER OF EQUATIONS:  12864
        NUMBER OF RHS:        1
        NUMBER OF FLOPS:      9.247e+08
        SOLVER ELAPSED TIME:  27ms

               CONVERGENCE CHECKS FOR EQUILIBRIUM ITERATION     1


 AVERAGE FORCE                       9.19       TIME AVG. FORCE        4.80    
 LARGEST SCALED RESIDUAL FORCE     -2.688E-10   AT NODE         58   DOF  1
   INSTANCE: ELASTIC_PLATE_1                                                                 
  CORRESPONDING RESIDUAL FORCE     -2.688E-10
 LARGEST INCREMENT OF DISP.         1.000E-06   AT NODE       2083   DOF  2
   INSTANCE: ELASTIC_PLATE_1                                                                 
 LARGEST CORRECTION TO DISP.        9.578E-12   AT NODE       1769   DOF  1
   INSTANCE: ELASTIC_PLATE_1                                                                 
          THE FORCE     EQUILIBRIUM RESPONSE WAS LINEAR IN THIS INCREMENT

 AVERAGE HEAT FLUX                  2.166E-09   TIME AVG. HEAT FLUX   1.000E-02
 LARGEST RESIDUAL HEAT FLUX         4.015E-19   AT NODE        768   DOF 11
   INSTANCE: ELASTIC_PLATE_1                                                                 
 LARGEST INCREMENT OF TEMP.          2.08       AT NODE       1768   DOF 11
   INSTANCE: ELASTIC_PLATE_1                                                                 
 LARGEST CORRECTION TO TEMP.       -8.786E-02   AT NODE          7   DOF 11
   INSTANCE: ELASTIC_PLATE_1                                                                 
          THERE IS ZERO HEAT FLUX EVERYWHERE
 

 ***WARNING: THERE IS ZERO HEAT FLUX EVERYWHERE IN THE MODEL BASED ON THE 
             DEFAULT CRITERION. PLEASE CHECK THE VALUE OF THE AVERAGE HEAT FLUX 
             DURING THE CURRENT ITERATION TO VERIFY THAT THE HEAT FLUX IS SMALL 
             ENOUGH TO BE TREATED AS ZERO. IF NOT, PLEASE USE THE SOLUTION 
             CONTROLS TO RESET THE CRITERION FOR ZERO HEAT FLUX.

 MAXIMUM NON-PRESCRIBED INCREMENT IN TEMPERATURE IS    2.08    

 ITERATION SUMMARY FOR THE INCREMENT:   1 TOTAL ITERATIONS, OF WHICH
   0 ARE SEVERE DISCONTINUITY ITERATIONS AND  1 ARE EQUILIBRIUM ITERATIONS.

 TIME INCREMENT COMPLETED  1.000E+07,  FRACTION OF STEP COMPLETED  0.230    
 STEP TIME COMPLETED       2.300E+08,  TOTAL TIME COMPLETED        2.300E+08


  INCREMENT    24 STARTS. ATTEMPT NUMBER  1, TIME INCREMENT  1.000E+07
 
	UNSYMMETRIC NEW DIRECT SPARSE SOLVER RUNNING ON
 	1 HOST x 1 MPI RANK PER HOST x 2 THREADS PER RANK
        NUMBER OF EQUATIONS:  12864
        NUMBER OF RHS:        1
        NUMBER OF FLOPS:      9.247e+08
        SOLVER ELAPSED TIME:  25ms

               CONVERGENCE CHECKS FOR EQUILIBRIUM ITERATION     1


 AVERAGE FORCE                       9.59       TIME AVG. FORCE        5.00    
 LARGEST SCALED RESIDUAL FORCE     -2.687E-10   AT NODE         58   DOF  1
   INSTANCE: ELASTIC_PLATE_1                                                                 
  CORRESPONDING RESIDUAL FORCE     -2.687E-10
 LARGEST INCREMENT OF DISP.         1.000E-06   AT NODE       2083   DOF  2
   INSTANCE: ELASTIC_PLATE_1                                                                 
 LARGEST CORRECTION TO DISP.        9.577E-12   AT NODE       1768   DOF  1
   INSTANCE: ELASTIC_PLATE_1                                                                 
          THE FORCE     EQUILIBRIUM RESPONSE WAS LINEAR IN THIS INCREMENT

 AVERAGE HEAT FLUX                  2.075E-09   TIME AVG. HEAT FLUX   1.000E-02
 LARGEST RESIDUAL HEAT FLUX         3.849E-19   AT NODE       1639   DOF 11
   INSTANCE: ELASTIC_PLATE_1                                                                 
 LARGEST INCREMENT OF TEMP.          1.99       AT NODE       1768   DOF 11
   INSTANCE: ELASTIC_PLATE_1                                                                 
 LARGEST CORRECTION TO TEMP.       -8.492E-02   AT NODE          7   DOF 11
   INSTANCE: ELASTIC_PLATE_1                                                                 
          THERE IS ZERO HEAT FLUX EVERYWHERE
 

 ***WARNING: THERE IS ZERO HEAT FLUX EVERYWHERE IN THE MODEL BASED ON THE 
             DEFAULT CRITERION. PLEASE CHECK THE VALUE OF THE AVERAGE HEAT FLUX 
             DURING THE CURRENT ITERATION TO VERIFY THAT THE HEAT FLUX IS SMALL 
             ENOUGH TO BE TREATED AS ZERO. IF NOT, PLEASE USE THE SOLUTION 
             CONTROLS TO RESET THE CRITERION FOR ZERO HEAT FLUX.

 MAXIMUM NON-PRESCRIBED INCREMENT IN TEMPERATURE IS    1.99    

 ITERATION SUMMARY FOR THE INCREMENT:   1 TOTAL ITERATIONS, OF WHICH
   0 ARE SEVERE DISCONTINUITY ITERATIONS AND  1 ARE EQUILIBRIUM ITERATIONS.

 TIME INCREMENT COMPLETED  1.000E+07,  FRACTION OF STEP COMPLETED  0.240    
 STEP TIME COMPLETED       2.400E+08,  TOTAL TIME COMPLETED        2.400E+08


  INCREMENT    25 STARTS. ATTEMPT NUMBER  1, TIME INCREMENT  1.000E+07
 
	UNSYMMETRIC NEW DIRECT SPARSE SOLVER RUNNING ON
 	1 HOST x 1 MPI RANK PER HOST x 2 THREADS PER RANK
        NUMBER OF EQUATIONS:  12864
        NUMBER OF RHS:        1
        NUMBER OF FLOPS:      9.247e+08
        SOLVER ELAPSED TIME:  25ms

               CONVERGENCE CHECKS FOR EQUILIBRIUM ITERATION     1


 AVERAGE FORCE                       9.99       TIME AVG. FORCE        5.20    
 LARGEST SCALED RESIDUAL FORCE     -2.687E-10   AT NODE         58   DOF  1
   INSTANCE: ELASTIC_PLATE_1                                                                 
  CORRESPONDING RESIDUAL FORCE     -2.687E-10
 LARGEST INCREMENT OF DISP.         1.000E-06   AT NODE       2083   DOF  2
   INSTANCE: ELASTIC_PLATE_1                                                                 
 LARGEST CORRECTION TO DISP.        9.577E-12   AT NODE       1769   DOF  1
   INSTANCE: ELASTIC_PLATE_1                                                                 
          THE FORCE     EQUILIBRIUM RESPONSE WAS LINEAR IN THIS INCREMENT

 AVERAGE HEAT FLUX                  1.989E-09   TIME AVG. HEAT FLUX   1.000E-02
 LARGEST RESIDUAL HEAT FLUX         3.689E-19   AT NODE       1639   DOF 11
   INSTANCE: ELASTIC_PLATE_1                                                                 
 LARGEST INCREMENT OF TEMP.          1.91       AT NODE       1769   DOF 11
   INSTANCE: ELASTIC_PLATE_1                                                                 
 LARGEST CORRECTION TO TEMP.       -8.191E-02   AT NODE       1752   DOF 11
   INSTANCE: ELASTIC_PLATE_1                                                                 
          THERE IS ZERO HEAT FLUX EVERYWHERE
 

 ***WARNING: THERE IS ZERO HEAT FLUX EVERYWHERE IN THE MODEL BASED ON THE 
             DEFAULT CRITERION. PLEASE CHECK THE VALUE OF THE AVERAGE HEAT FLUX 
             DURING THE CURRENT ITERATION TO VERIFY THAT THE HEAT FLUX IS SMALL 
             ENOUGH TO BE TREATED AS ZERO. IF NOT, PLEASE USE THE SOLUTION 
             CONTROLS TO RESET THE CRITERION FOR ZERO HEAT FLUX.

 MAXIMUM NON-PRESCRIBED INCREMENT IN TEMPERATURE IS    1.91    

 ITERATION SUMMARY FOR THE INCREMENT:   1 TOTAL ITERATIONS, OF WHICH
   0 ARE SEVERE DISCONTINUITY ITERATIONS AND  1 ARE EQUILIBRIUM ITERATIONS.

 TIME INCREMENT COMPLETED  1.000E+07,  FRACTION OF STEP COMPLETED  0.250    
 STEP TIME COMPLETED       2.500E+08,  TOTAL TIME COMPLETED        2.500E+08


  INCREMENT    26 STARTS. ATTEMPT NUMBER  1, TIME INCREMENT  1.000E+07
 
	UNSYMMETRIC NEW DIRECT SPARSE SOLVER RUNNING ON
 	1 HOST x 1 MPI RANK PER HOST x 2 THREADS PER RANK
        NUMBER OF EQUATIONS:  12864
        NUMBER OF RHS:        1
        NUMBER OF FLOPS:      9.247e+08
        SOLVER ELAPSED TIME:  25ms

               CONVERGENCE CHECKS FOR EQUILIBRIUM ITERATION     1


 AVERAGE FORCE                       10.4       TIME AVG. FORCE        5.40    
 LARGEST SCALED RESIDUAL FORCE     -2.686E-10   AT NODE         58   DOF  1
   INSTANCE: ELASTIC_PLATE_1                                                                 
  CORRESPONDING RESIDUAL FORCE     -2.686E-10
 LARGEST INCREMENT OF DISP.         1.000E-06   AT NODE       2083   DOF  2
   INSTANCE: ELASTIC_PLATE_1                                                                 
 LARGEST CORRECTION TO DISP.        9.576E-12   AT NODE       1769   DOF  1
   INSTANCE: ELASTIC_PLATE_1                                                                 
          THE FORCE     EQUILIBRIUM RESPONSE WAS LINEAR IN THIS INCREMENT

 AVERAGE HEAT FLUX                  1.906E-09   TIME AVG. HEAT FLUX   1.000E-02
 LARGEST RESIDUAL HEAT FLUX         3.544E-19   AT NODE       1639   DOF 11
   INSTANCE: ELASTIC_PLATE_1                                                                 
 LARGEST INCREMENT OF TEMP.          1.83       AT NODE       1768   DOF 11
   INSTANCE: ELASTIC_PLATE_1                                                                 
 LARGEST CORRECTION TO TEMP.       -7.887E-02   AT NODE       1750   DOF 11
   INSTANCE: ELASTIC_PLATE_1                                                                 
          THERE IS ZERO HEAT FLUX EVERYWHERE
 

 ***WARNING: THERE IS ZERO HEAT FLUX EVERYWHERE IN THE MODEL BASED ON THE 
             DEFAULT CRITERION. PLEASE CHECK THE VALUE OF THE AVERAGE HEAT FLUX 
             DURING THE CURRENT ITERATION TO VERIFY THAT THE HEAT FLUX IS SMALL 
             ENOUGH TO BE TREATED AS ZERO. IF NOT, PLEASE USE THE SOLUTION 
             CONTROLS TO RESET THE CRITERION FOR ZERO HEAT FLUX.

 MAXIMUM NON-PRESCRIBED INCREMENT IN TEMPERATURE IS    1.83    

 ITERATION SUMMARY FOR THE INCREMENT:   1 TOTAL ITERATIONS, OF WHICH
   0 ARE SEVERE DISCONTINUITY ITERATIONS AND  1 ARE EQUILIBRIUM ITERATIONS.

 TIME INCREMENT COMPLETED  1.000E+07,  FRACTION OF STEP COMPLETED  0.260    
 STEP TIME COMPLETED       2.600E+08,  TOTAL TIME COMPLETED        2.600E+08


  INCREMENT    27 STARTS. ATTEMPT NUMBER  1, TIME INCREMENT  1.000E+07
 
	UNSYMMETRIC NEW DIRECT SPARSE SOLVER RUNNING ON
 	1 HOST x 1 MPI RANK PER HOST x 2 THREADS PER RANK
        NUMBER OF EQUATIONS:  12864
        NUMBER OF RHS:        1
        NUMBER OF FLOPS:      9.247e+08
        SOLVER ELAPSED TIME:  24ms

               CONVERGENCE CHECKS FOR EQUILIBRIUM ITERATION     1


 AVERAGE FORCE                       10.8       TIME AVG. FORCE        5.60    
 LARGEST SCALED RESIDUAL FORCE     -2.686E-10   AT NODE        929   DOF  1
   INSTANCE: ELASTIC_PLATE_1                                                                 
  CORRESPONDING RESIDUAL FORCE     -2.686E-10
 LARGEST INCREMENT OF DISP.         1.000E-06   AT NODE       2083   DOF  2
   INSTANCE: ELASTIC_PLATE_1                                                                 
 LARGEST CORRECTION TO DISP.        9.576E-12   AT NODE       1768   DOF  1
   INSTANCE: ELASTIC_PLATE_1                                                                 
          THE FORCE     EQUILIBRIUM RESPONSE WAS LINEAR IN THIS INCREMENT

 AVERAGE HEAT FLUX                  1.826E-09   TIME AVG. HEAT FLUX   1.000E-02
 LARGEST RESIDUAL HEAT FLUX         3.388E-19   AT NODE        768   DOF 11
   INSTANCE: ELASTIC_PLATE_1                                                                 
 LARGEST INCREMENT OF TEMP.          1.76       AT NODE       1769   DOF 11
   INSTANCE: ELASTIC_PLATE_1                                                                 
 LARGEST CORRECTION TO TEMP.       -7.586E-02   AT NODE       1767   DOF 11
   INSTANCE: ELASTIC_PLATE_1                                                                 
          THERE IS ZERO HEAT FLUX EVERYWHERE
 

 ***WARNING: THERE IS ZERO HEAT FLUX EVERYWHERE IN THE MODEL BASED ON THE 
             DEFAULT CRITERION. PLEASE CHECK THE VALUE OF THE AVERAGE HEAT FLUX 
             DURING THE CURRENT ITERATION TO VERIFY THAT THE HEAT FLUX IS SMALL 
             ENOUGH TO BE TREATED AS ZERO. IF NOT, PLEASE USE THE SOLUTION 
             CONTROLS TO RESET THE CRITERION FOR ZERO HEAT FLUX.

 MAXIMUM NON-PRESCRIBED INCREMENT IN TEMPERATURE IS    1.76    

 ITERATION SUMMARY FOR THE INCREMENT:   1 TOTAL ITERATIONS, OF WHICH
   0 ARE SEVERE DISCONTINUITY ITERATIONS AND  1 ARE EQUILIBRIUM ITERATIONS.

 TIME INCREMENT COMPLETED  1.000E+07,  FRACTION OF STEP COMPLETED  0.270    
 STEP TIME COMPLETED       2.700E+08,  TOTAL TIME COMPLETED        2.700E+08


  INCREMENT    28 STARTS. ATTEMPT NUMBER  1, TIME INCREMENT  1.000E+07
 
	UNSYMMETRIC NEW DIRECT SPARSE SOLVER RUNNING ON
 	1 HOST x 1 MPI RANK PER HOST x 2 THREADS PER RANK
        NUMBER OF EQUATIONS:  12864
        NUMBER OF RHS:        1
        NUMBER OF FLOPS:      9.247e+08
        SOLVER ELAPSED TIME:  28ms

               CONVERGENCE CHECKS FOR EQUILIBRIUM ITERATION     1


 AVERAGE FORCE                       11.2       TIME AVG. FORCE        5.80    
 LARGEST SCALED RESIDUAL FORCE     -2.685E-10   AT NODE        929   DOF  1
   INSTANCE: ELASTIC_PLATE_1                                                                 
  CORRESPONDING RESIDUAL FORCE     -2.685E-10
 LARGEST INCREMENT OF DISP.         1.000E-06   AT NODE       2083   DOF  2
   INSTANCE: ELASTIC_PLATE_1                                                                 
 LARGEST CORRECTION TO DISP.        9.575E-12   AT NODE       1769   DOF  1
   INSTANCE: ELASTIC_PLATE_1                                                                 
          THE FORCE     EQUILIBRIUM RESPONSE WAS LINEAR IN THIS INCREMENT

 AVERAGE HEAT FLUX                  1.750E-09   TIME AVG. HEAT FLUX   1.000E-02
 LARGEST RESIDUAL HEAT FLUX         3.245E-19   AT NODE       1639   DOF 11
   INSTANCE: ELASTIC_PLATE_1                                                                 
 LARGEST INCREMENT OF TEMP.          1.68       AT NODE       1768   DOF 11
   INSTANCE: ELASTIC_PLATE_1                                                                 
 LARGEST CORRECTION TO TEMP.       -7.290E-02   AT NODE       1808   DOF 11
   INSTANCE: ELASTIC_PLATE_1                                                                 
          THERE IS ZERO HEAT FLUX EVERYWHERE
 

 ***WARNING: THERE IS ZERO HEAT FLUX EVERYWHERE IN THE MODEL BASED ON THE 
             DEFAULT CRITERION. PLEASE CHECK THE VALUE OF THE AVERAGE HEAT FLUX 
             DURING THE CURRENT ITERATION TO VERIFY THAT THE HEAT FLUX IS SMALL 
             ENOUGH TO BE TREATED AS ZERO. IF NOT, PLEASE USE THE SOLUTION 
             CONTROLS TO RESET THE CRITERION FOR ZERO HEAT FLUX.

 MAXIMUM NON-PRESCRIBED INCREMENT IN TEMPERATURE IS    1.68    

 ITERATION SUMMARY FOR THE INCREMENT:   1 TOTAL ITERATIONS, OF WHICH
   0 ARE SEVERE DISCONTINUITY ITERATIONS AND  1 ARE EQUILIBRIUM ITERATIONS.

 TIME INCREMENT COMPLETED  1.000E+07,  FRACTION OF STEP COMPLETED  0.280    
 STEP TIME COMPLETED       2.800E+08,  TOTAL TIME COMPLETED        2.800E+08


  INCREMENT    29 STARTS. ATTEMPT NUMBER  1, TIME INCREMENT  1.000E+07
 
	UNSYMMETRIC NEW DIRECT SPARSE SOLVER RUNNING ON
 	1 HOST x 1 MPI RANK PER HOST x 2 THREADS PER RANK
        NUMBER OF EQUATIONS:  12864
        NUMBER OF RHS:        1
        NUMBER OF FLOPS:      9.247e+08
        SOLVER ELAPSED TIME:  28ms

               CONVERGENCE CHECKS FOR EQUILIBRIUM ITERATION     1


 AVERAGE FORCE                       11.6       TIME AVG. FORCE        6.00    
 LARGEST SCALED RESIDUAL FORCE     -2.685E-10   AT NODE         58   DOF  1
   INSTANCE: ELASTIC_PLATE_1                                                                 
  CORRESPONDING RESIDUAL FORCE     -2.685E-10
 LARGEST INCREMENT OF DISP.         1.000E-06   AT NODE       2083   DOF  2
   INSTANCE: ELASTIC_PLATE_1                                                                 
 LARGEST CORRECTION TO DISP.        9.575E-12   AT NODE       1769   DOF  1
   INSTANCE: ELASTIC_PLATE_1                                                                 
          THE FORCE     EQUILIBRIUM RESPONSE WAS LINEAR IN THIS INCREMENT

 AVERAGE HEAT FLUX                  1.676E-09   TIME AVG. HEAT FLUX   1.000E-02
[...]

 AVERAGE HEAT FLUX                  1.087E-10   TIME AVG. HEAT FLUX   1.000E-02
 LARGEST RESIDUAL HEAT FLUX         2.036E-20   AT NODE        766   DOF 11
   INSTANCE: ELASTIC_PLATE_1                                                                 
 LARGEST INCREMENT OF TEMP.         0.105       AT NODE       1768   DOF 11
   INSTANCE: ELASTIC_PLATE_1                                                                 
 LARGEST CORRECTION TO TEMP.       -4.572E-03   AT NODE       1769   DOF 11
   INSTANCE: ELASTIC_PLATE_1                                                                 
          THERE IS ZERO HEAT FLUX EVERYWHERE
 

 ***WARNING: THERE IS ZERO HEAT FLUX EVERYWHERE IN THE MODEL BASED ON THE 
             DEFAULT CRITERION. PLEASE CHECK THE VALUE OF THE AVERAGE HEAT FLUX 
             DURING THE CURRENT ITERATION TO VERIFY THAT THE HEAT FLUX IS SMALL 
             ENOUGH TO BE TREATED AS ZERO. IF NOT, PLEASE USE THE SOLUTION 
             CONTROLS TO RESET THE CRITERION FOR ZERO HEAT FLUX.

 MAXIMUM NON-PRESCRIBED INCREMENT IN TEMPERATURE IS   0.105    

 ITERATION SUMMARY FOR THE INCREMENT:   1 TOTAL ITERATIONS, OF WHICH
   0 ARE SEVERE DISCONTINUITY ITERATIONS AND  1 ARE EQUILIBRIUM ITERATIONS.

 TIME INCREMENT COMPLETED  1.000E+07,  FRACTION OF STEP COMPLETED  0.930    
 STEP TIME COMPLETED       9.300E+08,  TOTAL TIME COMPLETED        9.300E+08


  INCREMENT    94 STARTS. ATTEMPT NUMBER  1, TIME INCREMENT  1.000E+07
 
	UNSYMMETRIC NEW DIRECT SPARSE SOLVER RUNNING ON
 	1 HOST x 1 MPI RANK PER HOST x 2 THREADS PER RANK
        NUMBER OF EQUATIONS:  12864
        NUMBER OF RHS:        1
        NUMBER OF FLOPS:      9.247e+08
        SOLVER ELAPSED TIME:  29ms

               CONVERGENCE CHECKS FOR EQUILIBRIUM ITERATION     1


 AVERAGE FORCE                       37.6       TIME AVG. FORCE        19.0    
 LARGEST SCALED RESIDUAL FORCE     -2.650E-10   AT NODE        929   DOF  1
   INSTANCE: ELASTIC_PLATE_1                                                                 
  CORRESPONDING RESIDUAL FORCE     -2.650E-10
 LARGEST INCREMENT OF DISP.         1.000E-06   AT NODE       2083   DOF  2
   INSTANCE: ELASTIC_PLATE_1                                                                 
 LARGEST CORRECTION TO DISP.        9.546E-12   AT NODE       1769   DOF  1
   INSTANCE: ELASTIC_PLATE_1                                                                 
          THE FORCE     EQUILIBRIUM RESPONSE WAS LINEAR IN THIS INCREMENT

 AVERAGE HEAT FLUX                  1.042E-10   TIME AVG. HEAT FLUX   1.000E-02
 LARGEST RESIDUAL HEAT FLUX         1.993E-20   AT NODE       1637   DOF 11
   INSTANCE: ELASTIC_PLATE_1                                                                 
 LARGEST INCREMENT OF TEMP.         0.100       AT NODE       1768   DOF 11
   INSTANCE: ELASTIC_PLATE_1                                                                 
 LARGEST CORRECTION TO TEMP.       -4.381E-03   AT NODE       1768   DOF 11
   INSTANCE: ELASTIC_PLATE_1                                                                 
          THERE IS ZERO HEAT FLUX EVERYWHERE
 

 ***WARNING: THERE IS ZERO HEAT FLUX EVERYWHERE IN THE MODEL BASED ON THE 
             DEFAULT CRITERION. PLEASE CHECK THE VALUE OF THE AVERAGE HEAT FLUX 
             DURING THE CURRENT ITERATION TO VERIFY THAT THE HEAT FLUX IS SMALL 
             ENOUGH TO BE TREATED AS ZERO. IF NOT, PLEASE USE THE SOLUTION 
             CONTROLS TO RESET THE CRITERION FOR ZERO HEAT FLUX.

 MAXIMUM NON-PRESCRIBED INCREMENT IN TEMPERATURE IS   0.100    

 ITERATION SUMMARY FOR THE INCREMENT:   1 TOTAL ITERATIONS, OF WHICH
   0 ARE SEVERE DISCONTINUITY ITERATIONS AND  1 ARE EQUILIBRIUM ITERATIONS.

 TIME INCREMENT COMPLETED  1.000E+07,  FRACTION OF STEP COMPLETED  0.940    
 STEP TIME COMPLETED       9.400E+08,  TOTAL TIME COMPLETED        9.400E+08


  INCREMENT    95 STARTS. ATTEMPT NUMBER  1, TIME INCREMENT  1.000E+07
 
	UNSYMMETRIC NEW DIRECT SPARSE SOLVER RUNNING ON
 	1 HOST x 1 MPI RANK PER HOST x 2 THREADS PER RANK
        NUMBER OF EQUATIONS:  12864
        NUMBER OF RHS:        1
        NUMBER OF FLOPS:      9.247e+08
        SOLVER ELAPSED TIME:  27ms

               CONVERGENCE CHECKS FOR EQUILIBRIUM ITERATION     1


 AVERAGE FORCE                       37.9       TIME AVG. FORCE        19.2    
 LARGEST SCALED RESIDUAL FORCE     -2.650E-10   AT NODE         58   DOF  1
   INSTANCE: ELASTIC_PLATE_1                                                                 
  CORRESPONDING RESIDUAL FORCE     -2.650E-10
 LARGEST INCREMENT OF DISP.         1.000E-06   AT NODE       2083   DOF  2
   INSTANCE: ELASTIC_PLATE_1                                                                 
 LARGEST CORRECTION TO DISP.        9.546E-12   AT NODE       1768   DOF  1
   INSTANCE: ELASTIC_PLATE_1                                                                 
          THE FORCE     EQUILIBRIUM RESPONSE WAS LINEAR IN THIS INCREMENT

 AVERAGE HEAT FLUX                  9.984E-11   TIME AVG. HEAT FLUX   1.000E-02
 LARGEST RESIDUAL HEAT FLUX         1.923E-20   AT NODE        766   DOF 11
   INSTANCE: ELASTIC_PLATE_1                                                                 
 LARGEST INCREMENT OF TEMP.         9.620E-02   AT NODE       1768   DOF 11
   INSTANCE: ELASTIC_PLATE_1                                                                 
 LARGEST CORRECTION TO TEMP.       -4.198E-03   AT NODE       1769   DOF 11
   INSTANCE: ELASTIC_PLATE_1                                                                 
          THERE IS ZERO HEAT FLUX EVERYWHERE
 

 ***WARNING: THERE IS ZERO HEAT FLUX EVERYWHERE IN THE MODEL BASED ON THE 
             DEFAULT CRITERION. PLEASE CHECK THE VALUE OF THE AVERAGE HEAT FLUX 
             DURING THE CURRENT ITERATION TO VERIFY THAT THE HEAT FLUX IS SMALL 
             ENOUGH TO BE TREATED AS ZERO. IF NOT, PLEASE USE THE SOLUTION 
             CONTROLS TO RESET THE CRITERION FOR ZERO HEAT FLUX.

 MAXIMUM NON-PRESCRIBED INCREMENT IN TEMPERATURE IS   9.620E-02

 ITERATION SUMMARY FOR THE INCREMENT:   1 TOTAL ITERATIONS, OF WHICH
   0 ARE SEVERE DISCONTINUITY ITERATIONS AND  1 ARE EQUILIBRIUM ITERATIONS.

 TIME INCREMENT COMPLETED  1.000E+07,  FRACTION OF STEP COMPLETED  0.950    
 STEP TIME COMPLETED       9.500E+08,  TOTAL TIME COMPLETED        9.500E+08


  INCREMENT    96 STARTS. ATTEMPT NUMBER  1, TIME INCREMENT  1.000E+07
 
	UNSYMMETRIC NEW DIRECT SPARSE SOLVER RUNNING ON
 	1 HOST x 1 MPI RANK PER HOST x 2 THREADS PER RANK
        NUMBER OF EQUATIONS:  12864
        NUMBER OF RHS:        1
        NUMBER OF FLOPS:      9.247e+08
        SOLVER ELAPSED TIME:  24ms

               CONVERGENCE CHECKS FOR EQUILIBRIUM ITERATION     1


 AVERAGE FORCE                       38.3       TIME AVG. FORCE        19.4    
 LARGEST SCALED RESIDUAL FORCE     -2.649E-10   AT NODE         58   DOF  1
   INSTANCE: ELASTIC_PLATE_1                                                                 
  CORRESPONDING RESIDUAL FORCE     -2.649E-10
 LARGEST INCREMENT OF DISP.         1.000E-06   AT NODE       2083   DOF  2
   INSTANCE: ELASTIC_PLATE_1                                                                 
 LARGEST CORRECTION TO DISP.        9.545E-12   AT NODE       1769   DOF  1
   INSTANCE: ELASTIC_PLATE_1                                                                 
          THE FORCE     EQUILIBRIUM RESPONSE WAS LINEAR IN THIS INCREMENT

 AVERAGE HEAT FLUX                  9.566E-11   TIME AVG. HEAT FLUX   1.000E-02
 LARGEST RESIDUAL HEAT FLUX         1.827E-20   AT NODE       1637   DOF 11
   INSTANCE: ELASTIC_PLATE_1                                                                 
 LARGEST INCREMENT OF TEMP.         9.218E-02   AT NODE       1769   DOF 11
   INSTANCE: ELASTIC_PLATE_1                                                                 
 LARGEST CORRECTION TO TEMP.       -4.022E-03   AT NODE       1768   DOF 11
   INSTANCE: ELASTIC_PLATE_1                                                                 
          THERE IS ZERO HEAT FLUX EVERYWHERE
 

 ***WARNING: THERE IS ZERO HEAT FLUX EVERYWHERE IN THE MODEL BASED ON THE 
             DEFAULT CRITERION. PLEASE CHECK THE VALUE OF THE AVERAGE HEAT FLUX 
             DURING THE CURRENT ITERATION TO VERIFY THAT THE HEAT FLUX IS SMALL 
             ENOUGH TO BE TREATED AS ZERO. IF NOT, PLEASE USE THE SOLUTION 
             CONTROLS TO RESET THE CRITERION FOR ZERO HEAT FLUX.

 MAXIMUM NON-PRESCRIBED INCREMENT IN TEMPERATURE IS   9.218E-02

 ITERATION SUMMARY FOR THE INCREMENT:   1 TOTAL ITERATIONS, OF WHICH
   0 ARE SEVERE DISCONTINUITY ITERATIONS AND  1 ARE EQUILIBRIUM ITERATIONS.

 TIME INCREMENT COMPLETED  1.000E+07,  FRACTION OF STEP COMPLETED  0.960    
 STEP TIME COMPLETED       9.600E+08,  TOTAL TIME COMPLETED        9.600E+08


  INCREMENT    97 STARTS. ATTEMPT NUMBER  1, TIME INCREMENT  1.000E+07
 
	UNSYMMETRIC NEW DIRECT SPARSE SOLVER RUNNING ON
 	1 HOST x 1 MPI RANK PER HOST x 2 THREADS PER RANK
        NUMBER OF EQUATIONS:  12864
        NUMBER OF RHS:        1
        NUMBER OF FLOPS:      9.247e+08
        SOLVER ELAPSED TIME:  28ms

               CONVERGENCE CHECKS FOR EQUILIBRIUM ITERATION     1


 AVERAGE FORCE                       38.7       TIME AVG. FORCE        19.6    
 LARGEST SCALED RESIDUAL FORCE     -2.648E-10   AT NODE        929   DOF  1
   INSTANCE: ELASTIC_PLATE_1                                                                 
  CORRESPONDING RESIDUAL FORCE     -2.648E-10
 LARGEST INCREMENT OF DISP.         1.000E-06   AT NODE       2083   DOF  2
   INSTANCE: ELASTIC_PLATE_1                                                                 
 LARGEST CORRECTION TO DISP.        9.545E-12   AT NODE       1768   DOF  1
   INSTANCE: ELASTIC_PLATE_1                                                                 
          THE FORCE     EQUILIBRIUM RESPONSE WAS LINEAR IN THIS INCREMENT

 AVERAGE HEAT FLUX                  9.166E-11   TIME AVG. HEAT FLUX   1.000E-02
 LARGEST RESIDUAL HEAT FLUX         1.729E-20   AT NODE        768   DOF 11
   INSTANCE: ELASTIC_PLATE_1                                                                 
 LARGEST INCREMENT OF TEMP.         8.833E-02   AT NODE       1769   DOF 11
   INSTANCE: ELASTIC_PLATE_1                                                                 
 LARGEST CORRECTION TO TEMP.       -3.854E-03   AT NODE       1769   DOF 11
   INSTANCE: ELASTIC_PLATE_1                                                                 
          THERE IS ZERO HEAT FLUX EVERYWHERE
 

 ***WARNING: THERE IS ZERO HEAT FLUX EVERYWHERE IN THE MODEL BASED ON THE 
             DEFAULT CRITERION. PLEASE CHECK THE VALUE OF THE AVERAGE HEAT FLUX 
             DURING THE CURRENT ITERATION TO VERIFY THAT THE HEAT FLUX IS SMALL 
             ENOUGH TO BE TREATED AS ZERO. IF NOT, PLEASE USE THE SOLUTION 
             CONTROLS TO RESET THE CRITERION FOR ZERO HEAT FLUX.

 MAXIMUM NON-PRESCRIBED INCREMENT IN TEMPERATURE IS   8.833E-02

 ITERATION SUMMARY FOR THE INCREMENT:   1 TOTAL ITERATIONS, OF WHICH
   0 ARE SEVERE DISCONTINUITY ITERATIONS AND  1 ARE EQUILIBRIUM ITERATIONS.

 TIME INCREMENT COMPLETED  1.000E+07,  FRACTION OF STEP COMPLETED  0.970    
 STEP TIME COMPLETED       9.700E+08,  TOTAL TIME COMPLETED        9.700E+08


  INCREMENT    98 STARTS. ATTEMPT NUMBER  1, TIME INCREMENT  1.000E+07
 
	UNSYMMETRIC NEW DIRECT SPARSE SOLVER RUNNING ON
 	1 HOST x 1 MPI RANK PER HOST x 2 THREADS PER RANK
        NUMBER OF EQUATIONS:  12864
        NUMBER OF RHS:        1
        NUMBER OF FLOPS:      9.247e+08
        SOLVER ELAPSED TIME:  26ms

               CONVERGENCE CHECKS FOR EQUILIBRIUM ITERATION     1


 AVERAGE FORCE                       39.1       TIME AVG. FORCE        19.8    
 LARGEST SCALED RESIDUAL FORCE     -2.648E-10   AT NODE         58   DOF  1
   INSTANCE: ELASTIC_PLATE_1                                                                 
  CORRESPONDING RESIDUAL FORCE     -2.648E-10
 LARGEST INCREMENT OF DISP.         1.000E-06   AT NODE       2083   DOF  2
   INSTANCE: ELASTIC_PLATE_1                                                                 
 LARGEST CORRECTION TO DISP.        9.545E-12   AT NODE       1768   DOF  1
   INSTANCE: ELASTIC_PLATE_1                                                                 
          THE FORCE     EQUILIBRIUM RESPONSE WAS LINEAR IN THIS INCREMENT

 AVERAGE HEAT FLUX                  8.783E-11   TIME AVG. HEAT FLUX   1.000E-02
 LARGEST RESIDUAL HEAT FLUX         1.706E-20   AT NODE       1639   DOF 11
   INSTANCE: ELASTIC_PLATE_1                                                                 
 LARGEST INCREMENT OF TEMP.         8.463E-02   AT NODE       1768   DOF 11
   INSTANCE: ELASTIC_PLATE_1                                                                 
 LARGEST CORRECTION TO TEMP.       -3.693E-03   AT NODE       1769   DOF 11
   INSTANCE: ELASTIC_PLATE_1                                                                 
          THERE IS ZERO HEAT FLUX EVERYWHERE
 

 ***WARNING: THERE IS ZERO HEAT FLUX EVERYWHERE IN THE MODEL BASED ON THE 
             DEFAULT CRITERION. PLEASE CHECK THE VALUE OF THE AVERAGE HEAT FLUX 
             DURING THE CURRENT ITERATION TO VERIFY THAT THE HEAT FLUX IS SMALL 
             ENOUGH TO BE TREATED AS ZERO. IF NOT, PLEASE USE THE SOLUTION 
             CONTROLS TO RESET THE CRITERION FOR ZERO HEAT FLUX.

 MAXIMUM NON-PRESCRIBED INCREMENT IN TEMPERATURE IS   8.463E-02

 ITERATION SUMMARY FOR THE INCREMENT:   1 TOTAL ITERATIONS, OF WHICH
   0 ARE SEVERE DISCONTINUITY ITERATIONS AND  1 ARE EQUILIBRIUM ITERATIONS.

 TIME INCREMENT COMPLETED  1.000E+07,  FRACTION OF STEP COMPLETED  0.980    
 STEP TIME COMPLETED       9.800E+08,  TOTAL TIME COMPLETED        9.800E+08


  INCREMENT    99 STARTS. ATTEMPT NUMBER  1, TIME INCREMENT  1.000E+07
 
	UNSYMMETRIC NEW DIRECT SPARSE SOLVER RUNNING ON
 	1 HOST x 1 MPI RANK PER HOST x 2 THREADS PER RANK
        NUMBER OF EQUATIONS:  12864
        NUMBER OF RHS:        1
        NUMBER OF FLOPS:      9.247e+08
        SOLVER ELAPSED TIME:  26ms

               CONVERGENCE CHECKS FOR EQUILIBRIUM ITERATION     1


 AVERAGE FORCE                       39.5       TIME AVG. FORCE        20.0    
 LARGEST SCALED RESIDUAL FORCE     -2.647E-10   AT NODE        929   DOF  1
   INSTANCE: ELASTIC_PLATE_1                                                                 
  CORRESPONDING RESIDUAL FORCE     -2.647E-10
 LARGEST INCREMENT OF DISP.         1.000E-06   AT NODE       2083   DOF  2
   INSTANCE: ELASTIC_PLATE_1                                                                 
 LARGEST CORRECTION TO DISP.        9.544E-12   AT NODE       1769   DOF  1
   INSTANCE: ELASTIC_PLATE_1                                                                 
          THE FORCE     EQUILIBRIUM RESPONSE WAS LINEAR IN THIS INCREMENT

 AVERAGE HEAT FLUX                  8.416E-11   TIME AVG. HEAT FLUX   1.000E-02
 LARGEST RESIDUAL HEAT FLUX         1.645E-20   AT NODE        766   DOF 11
   INSTANCE: ELASTIC_PLATE_1                                                                 
 LARGEST INCREMENT OF TEMP.         8.110E-02   AT NODE       1769   DOF 11
   INSTANCE: ELASTIC_PLATE_1                                                                 
 LARGEST CORRECTION TO TEMP.       -3.538E-03   AT NODE       1768   DOF 11
   INSTANCE: ELASTIC_PLATE_1                                                                 
          THERE IS ZERO HEAT FLUX EVERYWHERE
 

 ***WARNING: THERE IS ZERO HEAT FLUX EVERYWHERE IN THE MODEL BASED ON THE 
             DEFAULT CRITERION. PLEASE CHECK THE VALUE OF THE AVERAGE HEAT FLUX 
             DURING THE CURRENT ITERATION TO VERIFY THAT THE HEAT FLUX IS SMALL 
             ENOUGH TO BE TREATED AS ZERO. IF NOT, PLEASE USE THE SOLUTION 
             CONTROLS TO RESET THE CRITERION FOR ZERO HEAT FLUX.

 MAXIMUM NON-PRESCRIBED INCREMENT IN TEMPERATURE IS   8.110E-02

 ITERATION SUMMARY FOR THE INCREMENT:   1 TOTAL ITERATIONS, OF WHICH
   0 ARE SEVERE DISCONTINUITY ITERATIONS AND  1 ARE EQUILIBRIUM ITERATIONS.

 TIME INCREMENT COMPLETED  1.000E+07,  FRACTION OF STEP COMPLETED  0.990    
 STEP TIME COMPLETED       9.900E+08,  TOTAL TIME COMPLETED        9.900E+08


  INCREMENT   100 STARTS. ATTEMPT NUMBER  1, TIME INCREMENT  1.000E+07
 
	UNSYMMETRIC NEW DIRECT SPARSE SOLVER RUNNING ON
 	1 HOST x 1 MPI RANK PER HOST x 2 THREADS PER RANK
        NUMBER OF EQUATIONS:  12864
        NUMBER OF RHS:        1
        NUMBER OF FLOPS:      9.247e+08
        SOLVER ELAPSED TIME:  24ms

               CONVERGENCE CHECKS FOR EQUILIBRIUM ITERATION     1


 AVERAGE FORCE                       39.9       TIME AVG. FORCE        20.2    
 LARGEST SCALED RESIDUAL FORCE     -2.647E-10   AT NODE        929   DOF  1
   INSTANCE: ELASTIC_PLATE_1                                                                 
  CORRESPONDING RESIDUAL FORCE     -2.647E-10
 LARGEST INCREMENT OF DISP.         1.000E-06   AT NODE       2083   DOF  2
   INSTANCE: ELASTIC_PLATE_1                                                                 
 LARGEST CORRECTION TO DISP.        9.544E-12   AT NODE       1768   DOF  1
   INSTANCE: ELASTIC_PLATE_1                                                                 
          THE FORCE     EQUILIBRIUM RESPONSE WAS LINEAR IN THIS INCREMENT

 AVERAGE HEAT FLUX                  8.064E-11   TIME AVG. HEAT FLUX   1.000E-02
 LARGEST RESIDUAL HEAT FLUX         1.566E-20   AT NODE       1639   DOF 11
   INSTANCE: ELASTIC_PLATE_1                                                                 
 LARGEST INCREMENT OF TEMP.         7.771E-02   AT NODE       1769   DOF 11
   INSTANCE: ELASTIC_PLATE_1                                                                 
 LARGEST CORRECTION TO TEMP.       -3.390E-03   AT NODE       1769   DOF 11
   INSTANCE: ELASTIC_PLATE_1                                                                 
          THERE IS ZERO HEAT FLUX EVERYWHERE
 

 ***WARNING: THERE IS ZERO HEAT FLUX EVERYWHERE IN THE MODEL BASED ON THE 
             DEFAULT CRITERION. PLEASE CHECK THE VALUE OF THE AVERAGE HEAT FLUX 
             DURING THE CURRENT ITERATION TO VERIFY THAT THE HEAT FLUX IS SMALL 
             ENOUGH TO BE TREATED AS ZERO. IF NOT, PLEASE USE THE SOLUTION 
             CONTROLS TO RESET THE CRITERION FOR ZERO HEAT FLUX.

 MAXIMUM NON-PRESCRIBED INCREMENT IN TEMPERATURE IS   7.771E-02

 ITERATION SUMMARY FOR THE INCREMENT:   1 TOTAL ITERATIONS, OF WHICH
   0 ARE SEVERE DISCONTINUITY ITERATIONS AND  1 ARE EQUILIBRIUM ITERATIONS.

 TIME INCREMENT COMPLETED  1.000E+07,  FRACTION OF STEP COMPLETED   1.00    
 STEP TIME COMPLETED       1.000E+09,  TOTAL TIME COMPLETED        1.000E+09


          THE ANALYSIS HAS BEEN COMPLETED



     ANALYSIS SUMMARY:
     TOTAL OF        100  INCREMENTS
                       0  CUTBACKS IN AUTOMATIC INCREMENTATION
                     101  ITERATIONS INCLUDING CONTACT ITERATIONS IF PRESENT
                     101  PASSES THROUGH THE EQUATION SOLVER OF WHICH 
                     101  INVOLVE MATRIX DECOMPOSITION, INCLUDING
                       0  DECOMPOSITION(S) OF THE MASS MATRIX
                       1  REORDERING OF EQUATIONS TO MINIMIZE WAVEFRONT
                       0  ADDITIONAL RESIDUAL EVALUATIONS FOR LINE SEARCHES
                       0  ADDITIONAL OPERATOR EVALUATIONS FOR LINE SEARCHES
                       3  WARNING MESSAGES DURING USER INPUT PROCESSING
                     101  WARNING MESSAGES DURING ANALYSIS
                       0  ANALYSIS WARNINGS ARE NUMERICAL PROBLEM MESSAGES
                       0  ANALYSIS WARNINGS ARE NEGATIVE EIGENVALUE MESSAGES
                       0  ERROR MESSAGES



     JOB TIME SUMMARY
       USER TIME (SEC)      =      28.    
       SYSTEM TIME (SEC)    =      4.4    
       TOTAL CPU TIME (SEC) =      32.    
       WALLCLOCK TIME (SEC) =           22
       MEMORY PEAK (GB)     =            0
