1

   Abaqus 2023.HF4                                  Date 06-Apr-2025   Time 20:48:42
   For use by AALTO UNIVERSITY under license from Dassault Systemes or its subsidiary.

                                                                                 
                                                                                 
 STEP    1     INCREMENT     1     STEP TIME    0.00    


                        S T E P       1     C O U P L E D - T E M P E R A T U R E - D I S P L A C E M E N T   A N A L Y S I S


                                                                                          

     AUTOMATIC TIME CONTROL WITH -
          A SUGGESTED INITIAL TIME INCREMENT OF                 1.00    
          AND A TOTAL TIME PERIOD OF                            100.    
          THE MINIMUM TIME INCREMENT ALLOWED IS                1.000E-04
          THE MAXIMUM TIME INCREMENT ALLOWED IS                 1.00    

          CREEP AND SWELLING EFFECTS ARE OMITTED IN THIS STEP

     THE SIZE OF THE TIME INCREMENT IS CONTROLLED BY -
          THE TEMPERATURE CHANGE PER INCREMENT NOT EXCEEDING           1.000E+05
          THE RATE DEPENDENCY WILL BE CONSIDERED IN THIS STEP

          CREEP AND SWELLING EFFECTS WILL BE IGNORED.

 CONVERGENCE TOLERANCE PARAMETERS FOR FORCE    
     CRITERION FOR RESIDUAL FORCE     FOR A NONLINEAR PROBLEM          5.000E-03
     CRITERION FOR DISP.    CORRECTION IN A NONLINEAR PROBLEM          1.000E-02
     INITIAL VALUE OF TIME AVERAGE FORCE                               1.000E-02
     AVERAGE FORCE     IS TIME AVERAGE FORCE    
     ALTERNATE CRIT. FOR RESIDUAL FORCE     FOR A NONLINEAR PROBLEM    2.000E-02
     CRITERION FOR ZERO FORCE     RELATIVE TO TIME AVRG. FORCE         1.000E-05
     CRITERION FOR RESIDUAL FORCE     WHEN THERE IS ZERO FLUX          1.000E-05
     CRITERION FOR DISP.    CORRECTION WHEN THERE IS ZERO FLUX         1.000E-03
     CRITERION FOR RESIDUAL FORCE     FOR A LINEAR INCREMENT           1.000E-08
     FIELD CONVERSION RATIO                                             1.00    
     CRITERION FOR ZERO FORCE     REL. TO TIME AVRG. MAX. FORCE        1.000E-05
     CRITERION FOR ZERO DISP.    RELATIVE TO CHARACTERISTIC LENGTH     1.000E-08

 CONVERGENCE TOLERANCE PARAMETERS FOR HEAT FLUX
     CRITERION FOR RESIDUAL HEAT FLUX FOR A NONLINEAR PROBLEM          5.000E-03
     CRITERION FOR TEMP.    CORRECTION IN A NONLINEAR PROBLEM          1.000E-02
     INITIAL VALUE OF TIME AVERAGE HEAT FLUX                           1.000E-02
     AVERAGE HEAT FLUX IS TIME AVERAGE HEAT FLUX
     ALTERNATE CRIT. FOR RESIDUAL HEAT FLUX FOR A NONLINEAR PROBLEM    2.000E-02
     CRITERION FOR ZERO HEAT FLUX RELATIVE TO TIME AVRG. HEAT FLUX     1.000E-05
     CRITERION FOR RESIDUAL HEAT FLUX WHEN THERE IS ZERO FLUX          1.000E-05
     CRITERION FOR TEMP.    CORRECTION WHEN THERE IS ZERO FLUX         1.000E-03
     CRITERION FOR RESIDUAL HEAT FLUX FOR A LINEAR INCREMENT           1.000E-08
     FIELD CONVERSION RATIO                                             1.00    
     CRITERION FOR ZERO HEAT FLUX REL. TO TIME AVRG. MAX. HEAT FLUX    1.000E-05

     VOLUMETRIC STRAIN COMPATIBILITY TOLERANCE FOR HYBRID SOLIDS       1.000E-05
     AXIAL STRAIN COMPATIBILITY TOLERANCE FOR HYBRID BEAMS             1.000E-05
     TRANS. SHEAR STRAIN COMPATIBILITY TOLERANCE FOR HYBRID BEAMS      1.000E-05
     SOFT CONTACT CONSTRAINT COMPATIBILITY TOLERANCE FOR P>P0          5.000E-03
     SOFT CONTACT CONSTRAINT COMPATIBILITY TOLERANCE FOR P=0.0         0.100    
     CONTACT FORCE ERROR TOLERANCE FOR CONVERT SDI=YES                 1.00    
     DISPLACEMENT COMPATIBILITY TOLERANCE FOR DCOUP ELEMENTS           1.000E-05
     ROTATION COMPATIBILITY TOLERANCE FOR DCOUP ELEMENTS               1.000E-05

 EQUILIBRIUM WILL BE CHECKED FOR SEVERE DISCONTINUITY ITERATIONS

 TIME INCREMENTATION CONTROL PARAMETERS:
     FIRST EQUILIBRIUM ITERATION FOR CONSECUTIVE DIVERGENCE CHECK              4
     EQUILIBRIUM ITERATION AT WHICH LOG. CONVERGENCE RATE CHECK BEGINS         8
     EQUILIBRIUM ITERATION AFTER WHICH ALTERNATE RESIDUAL IS USED              9
     MAXIMUM EQUILIBRIUM ITERATIONS ALLOWED                                   16
     EQUILIBRIUM ITERATION COUNT FOR CUT-BACK IN NEXT INCREMENT               10
     MAXIMUM EQUILIB. ITERS IN TWO INCREMENTS FOR TIME INCREMENT INCREASE      4
     MAXIMUM ITERATIONS FOR SEVERE DISCONTINUITIES                            50
     MAXIMUM ATTEMPTS ALLOWED IN AN INCREMENT                                  5
     MAXIMUM DISCON. ITERS IN TWO INCREMENTS FOR TIME INCREMENT INCREASE      50
     MAXIMUM CONTACT AUGMENTATIONS FOR *SURFACE BEHAVIOR,AUGMENTED LAGRANGE   50
     CONSECUTIVE INCS MEETING TIME INTEG. TOL. FOR TIME INC. INCREASE          3
     CUT-BACK FACTOR AFTER DIVERGENCE                                 0.2500    
     CUT-BACK FACTOR FOR TOO SLOW CONVERGENCE                         0.5000    
     CUT-BACK FACTOR AFTER TOO MANY EQUILIBRIUM ITERATIONS            0.7500    
     CUT-BACK FACTOR AFTER TOO MANY SEVERE DISCONTINUITY ITERATIONS   0.2500    
     CUT-BACK FACTOR AFTER PROBLEMS IN ELEMENT ASSEMBLY               0.2500    
     INCREASE FACTOR AFTER TWO INCREMENTS THAT CONVERGE QUICKLY        1.500    
     MAX. TIME INCREMENT INCREASE FACTOR ALLOWED                       1.500    
     MAX. TIME INCREMENT INCREASE FACTOR ALLOWED (DYNAMICS)            1.250    
     MAX. TIME INCREMENT INCREASE FACTOR ALLOWED (DIFFUSION)           2.000    
     MINIMUM TIME INCREMENT RATIO FOR EXTRAPOLATION TO OCCUR          0.1000    
     CUT-BACK FACTOR WHEN TIME INTEGRATION ACCURACY TOL. EXCEEDED     0.8500    
     MAX. RATIO OF TIME INTEG. MEASURE TO TOL. FOR TIME INC. INCREASE 0.7500    
     INCREASE FACTOR FOR TIME INCREMENT WHEN POSSIBLE                 0.8000    
     MIN. TIME INC. INCREASE FACTOR IN LINEAR TRANSIENT PROBLEMS      0.9500    
     MAX. RATIO OF TIME INCREMENT TO STABILITY LIMIT                   1.000    
     FRACTION OF STABILITY LIMIT FOR NEW TIME INCREMENT               0.9500    
     TIME INCREMENT INCREASE FACTOR BEFORE A TIME POINT                1.000    
     GLOBAL STABILIZATION CONTROL IS NOT USED

          PRINT OF INCREMENT NUMBER, TIME, ETC., EVERY    1  INCREMENTS

     THE MAXIMUM NUMBER OF INCREMENTS IN THIS STEP IS                 *******

          LARGE DISPLACEMENT THEORY WILL BE USED

          UNSYMMETRIC MATRIX STORAGE AND SOLUTION WILL BE USED

     LINEAR EXTRAPOLATION WILL BE USED

     CHARACTERISTIC ELEMENT LENGTH     9.764E-04

     DETAILS REGARDING ACTUAL SOLUTION WAVEFRONT REQUESTED

     DETAILED OUTPUT OF DIAGNOSTICS TO DATABASE REQUESTED

     PRINT OF INCREMENT NUMBER, TIME, ETC., TO THE MESSAGE FILE EVERY     1  INCREMENTS

     COLLECTING MODEL CONSTRAINT INFORMATION FOR OVERCONSTRAINT CHECKS

     COLLECTING STEP CONSTRAINT INFORMATION FOR OVERCONSTRAINT CHECKS


  INCREMENT     1 STARTS. ATTEMPT NUMBER  1, TIME INCREMENT   1.00    
 
	UNSYMMETRIC NEW DIRECT SPARSE SOLVER RUNNING ON
 	1 HOST x 1 MPI RANK PER HOST x 1 THREAD PER RANK
        NUMBER OF EQUATIONS:  12918
        NUMBER OF RHS:        1
        NUMBER OF FLOPS:      9.052e+08
        SOLVER ELAPSED TIME:  41ms

 ***WARNING: SOLVER PROBLEM.  ZERO PIVOT WHEN PROCESSING NODE 929 INSTANCE 
             ELASTIC_PLATE_1 D.O.F. 11
  Typically a zero pivot is associated with an overconstraint in the model. 
 However, Abaqus was not able to identify any chains of constraints that might 
 lead to an overconstraint at this node. This suggests that the model might be 
 in fact insufficiently constrained in this particular degree of freedom. 
 Please check the constraints used in this model. 


 ***WARNING: SOLVER PROBLEM.  ZERO PIVOT WHEN PROCESSING NODE 58 INSTANCE 
             ELASTIC_PLATE_1 D.O.F. 11
  Typically a zero pivot is associated with an overconstraint in the model. 
 However, Abaqus was not able to identify any chains of constraints that might 
 lead to an overconstraint at this node. This suggests that the model might be 
 in fact insufficiently constrained in this particular degree of freedom. 
 Please check the constraints used in this model. 


 ***WARNING: SOLVER PROBLEM.  ZERO PIVOT WHEN PROCESSING NODE 4 INSTANCE 
             ELASTIC_PLATE_1 D.O.F. 11
  Typically a zero pivot is associated with an overconstraint in the model. 
 However, Abaqus was not able to identify any chains of constraints that might 
 lead to an overconstraint at this node. This suggests that the model might be 
 in fact insufficiently constrained in this particular degree of freedom. 
 Please check the constraints used in this model. 


 ***WARNING: SOLVER PROBLEM.  ZERO PIVOT WHEN PROCESSING NODE 875 INSTANCE 
             ELASTIC_PLATE_1 D.O.F. 11
  Typically a zero pivot is associated with an overconstraint in the model. 
 However, Abaqus was not able to identify any chains of constraints that might 
 lead to an overconstraint at this node. This suggests that the model might be 
 in fact insufficiently constrained in this particular degree of freedom. 
 Please check the constraints used in this model. 


 ***WARNING: SOLVER PROBLEM.  ZERO PIVOT WHEN PROCESSING NODE 931 INSTANCE 
             ELASTIC_PLATE_1 D.O.F. 11
  Typically a zero pivot is associated with an overconstraint in the model. 
 However, Abaqus was not able to identify any chains of constraints that might 
 lead to an overconstraint at this node. This suggests that the model might be 
 in fact insufficiently constrained in this particular degree of freedom. 
 Please check the constraints used in this model. 


 ***WARNING: SOLVER PROBLEM.  ZERO PIVOT WHEN PROCESSING NODE 60 INSTANCE 
             ELASTIC_PLATE_1 D.O.F. 11
  Typically a zero pivot is associated with an overconstraint in the model. 
 However, Abaqus was not able to identify any chains of constraints that might 
 lead to an overconstraint at this node. This suggests that the model might be 
 in fact insufficiently constrained in this particular degree of freedom. 
 Please check the constraints used in this model. 


 ***WARNING: SOLVER PROBLEM.  ZERO PIVOT WHEN PROCESSING NODE 59 INSTANCE 
             ELASTIC_PLATE_1 D.O.F. 11
  Typically a zero pivot is associated with an overconstraint in the model. 
 However, Abaqus was not able to identify any chains of constraints that might 
 lead to an overconstraint at this node. This suggests that the model might be 
 in fact insufficiently constrained in this particular degree of freedom. 
 Please check the constraints used in this model. 


 ***WARNING: SOLVER PROBLEM.  ZERO PIVOT WHEN PROCESSING NODE 930 INSTANCE 
             ELASTIC_PLATE_1 D.O.F. 11
  Typically a zero pivot is associated with an overconstraint in the model. 
 However, Abaqus was not able to identify any chains of constraints that might 
 lead to an overconstraint at this node. This suggests that the model might be 
 in fact insufficiently constrained in this particular degree of freedom. 
 Please check the constraints used in this model. 


 ***WARNING: SOLVER PROBLEM.  ZERO PIVOT WHEN PROCESSING NODE 934 INSTANCE 
             ELASTIC_PLATE_1 D.O.F. 11
  Typically a zero pivot is associated with an overconstraint in the model. 
 However, Abaqus was not able to identify any chains of constraints that might 
 lead to an overconstraint at this node. This suggests that the model might be 
 in fact insufficiently constrained in this particular degree of freedom. 
 Please check the constraints used in this model. 


 ***WARNING: SOLVER PROBLEM.  ZERO PIVOT WHEN PROCESSING NODE 63 INSTANCE 
             ELASTIC_PLATE_1 D.O.F. 11
  Typically a zero pivot is associated with an overconstraint in the model. 
 However, Abaqus was not able to identify any chains of constraints that might 
 lead to an overconstraint at this node. This suggests that the model might be 
 in fact insufficiently constrained in this particular degree of freedom. 
 Please check the constraints used in this model. 


 ***WARNING: SOLVER PROBLEM.  ZERO PIVOT WHEN PROCESSING NODE 62 INSTANCE 
             ELASTIC_PLATE_1 D.O.F. 11
  Typically a zero pivot is associated with an overconstraint in the model. 
 However, Abaqus was not able to identify any chains of constraints that might 
 lead to an overconstraint at this node. This suggests that the model might be 
 in fact insufficiently constrained in this particular degree of freedom. 
 Please check the constraints used in this model. 


 ***WARNING: SOLVER PROBLEM.  ZERO PIVOT WHEN PROCESSING NODE 933 INSTANCE 
             ELASTIC_PLATE_1 D.O.F. 11
  Typically a zero pivot is associated with an overconstraint in the model. 
 However, Abaqus was not able to identify any chains of constraints that might 
 lead to an overconstraint at this node. This suggests that the model might be 
 in fact insufficiently constrained in this particular degree of freedom. 
 Please check the constraints used in this model. 


 ***WARNING: SOLVER PROBLEM.  ZERO PIVOT WHEN PROCESSING NODE 61 INSTANCE 
             ELASTIC_PLATE_1 D.O.F. 11
  Typically a zero pivot is associated with an overconstraint in the model. 
 However, Abaqus was not able to identify any chains of constraints that might 
 lead to an overconstraint at this node. This suggests that the model might be 
 in fact insufficiently constrained in this particular degree of freedom. 
 Please check the constraints used in this model. 


 ***WARNING: SOLVER PROBLEM.  ZERO PIVOT WHEN PROCESSING NODE 932 INSTANCE 
             ELASTIC_PLATE_1 D.O.F. 11
  Typically a zero pivot is associated with an overconstraint in the model. 
 However, Abaqus was not able to identify any chains of constraints that might 
 lead to an overconstraint at this node. This suggests that the model might be 
 in fact insufficiently constrained in this particular degree of freedom. 
 Please check the constraints used in this model. 


 ***WARNING: SOLVER PROBLEM.  ZERO PIVOT WHEN PROCESSING NODE 1389 INSTANCE 
             ELASTIC_PLATE_1 D.O.F. 11
  Typically a zero pivot is associated with an overconstraint in the model. 
 However, Abaqus was not able to identify any chains of constraints that might 
 lead to an overconstraint at this node. This suggests that the model might be 
 in fact insufficiently constrained in this particular degree of freedom. 
 Please check the constraints used in this model. 


 ***WARNING: SOLVER PROBLEM.  ZERO PIVOT WHEN PROCESSING NODE 518 INSTANCE 
             ELASTIC_PLATE_1 D.O.F. 11
  Typically a zero pivot is associated with an overconstraint in the model. 
 However, Abaqus was not able to identify any chains of constraints that might 
 lead to an overconstraint at this node. This suggests that the model might be 
 in fact insufficiently constrained in this particular degree of freedom. 
 Please check the constraints used in this model. 


 ***WARNING: SOLVER PROBLEM.  ZERO PIVOT WHEN PROCESSING NODE 927 INSTANCE 
             ELASTIC_PLATE_1 D.O.F. 11
  Typically a zero pivot is associated with an overconstraint in the model. 
 However, Abaqus was not able to identify any chains of constraints that might 
 lead to an overconstraint at this node. This suggests that the model might be 
 in fact insufficiently constrained in this particular degree of freedom. 
 Please check the constraints used in this model. 


 ***WARNING: SOLVER PROBLEM.  ZERO PIVOT WHEN PROCESSING NODE 56 INSTANCE 
             ELASTIC_PLATE_1 D.O.F. 11
  Typically a zero pivot is associated with an overconstraint in the model. 
 However, Abaqus was not able to identify any chains of constraints that might 
 lead to an overconstraint at this node. This suggests that the model might be 
 in fact insufficiently constrained in this particular degree of freedom. 
 Please check the constraints used in this model. 


 ***WARNING: SOLVER PROBLEM.  ZERO PIVOT WHEN PROCESSING NODE 55 INSTANCE 
             ELASTIC_PLATE_1 D.O.F. 11
  Typically a zero pivot is associated with an overconstraint in the model. 
 However, Abaqus was not able to identify any chains of constraints that might 
 lead to an overconstraint at this node. This suggests that the model might be 
 in fact insufficiently constrained in this particular degree of freedom. 
 Please check the constraints used in this model. 


 ***WARNING: SOLVER PROBLEM.  ZERO PIVOT WHEN PROCESSING NODE 926 INSTANCE 
             ELASTIC_PLATE_1 D.O.F. 11
  Typically a zero pivot is associated with an overconstraint in the model. 
 However, Abaqus was not able to identify any chains of constraints that might 
 lead to an overconstraint at this node. This suggests that the model might be 
 in fact insufficiently constrained in this particular degree of freedom. 
 Please check the constraints used in this model. 


 ***WARNING: SOLVER PROBLEM.  ZERO PIVOT WHEN PROCESSING NODE 924 INSTANCE 
             ELASTIC_PLATE_1 D.O.F. 11
  Typically a zero pivot is associated with an overconstraint in the model. 
 However, Abaqus was not able to identify any chains of constraints that might 
 lead to an overconstraint at this node. This suggests that the model might be 
 in fact insufficiently constrained in this particular degree of freedom. 
 Please check the constraints used in this model. 


 ***WARNING: SOLVER PROBLEM.  ZERO PIVOT WHEN PROCESSING NODE 53 INSTANCE 
             ELASTIC_PLATE_1 D.O.F. 11
  Typically a zero pivot is associated with an overconstraint in the model. 
 However, Abaqus was not able to identify any chains of constraints that might 
 lead to an overconstraint at this node. This suggests that the model might be 
 in fact insufficiently constrained in this particular degree of freedom. 
 Please check the constraints used in this model. 


 ***WARNING: SOLVER PROBLEM.  ZERO PIVOT WHEN PROCESSING NODE 877 INSTANCE 
             ELASTIC_PLATE_1 D.O.F. 11
  Typically a zero pivot is associated with an overconstraint in the model. 
 However, Abaqus was not able to identify any chains of constraints that might 
 lead to an overconstraint at this node. This suggests that the model might be 
 in fact insufficiently constrained in this particular degree of freedom. 
 Please check the constraints used in this model. 


 ***WARNING: SOLVER PROBLEM.  ZERO PIVOT WHEN PROCESSING NODE 6 INSTANCE 
             ELASTIC_PLATE_1 D.O.F. 11
  Typically a zero pivot is associated with an overconstraint in the model. 
 However, Abaqus was not able to identify any chains of constraints that might 
 lead to an overconstraint at this node. This suggests that the model might be 
 in fact insufficiently constrained in this particular degree of freedom. 
 Please check the constraints used in this model. 


 ***WARNING: SOLVER PROBLEM.  ZERO PIVOT WHEN PROCESSING NODE 50 INSTANCE 
             ELASTIC_PLATE_1 D.O.F. 11
  Typically a zero pivot is associated with an overconstraint in the model. 
 However, Abaqus was not able to identify any chains of constraints that might 
 lead to an overconstraint at this node. This suggests that the model might be 
 in fact insufficiently constrained in this particular degree of freedom. 
 Please check the constraints used in this model. 


 ***WARNING: SOLVER PROBLEM.  ZERO PIVOT WHEN PROCESSING NODE 921 INSTANCE 
             ELASTIC_PLATE_1 D.O.F. 11
  Typically a zero pivot is associated with an overconstraint in the model. 
 However, Abaqus was not able to identify any chains of constraints that might 
 lead to an overconstraint at this node. This suggests that the model might be 
 in fact insufficiently constrained in this particular degree of freedom. 
 Please check the constraints used in this model. 


 ***WARNING: SOLVER PROBLEM.  ZERO PIVOT WHEN PROCESSING NODE 51 INSTANCE 
             ELASTIC_PLATE_1 D.O.F. 11
  Typically a zero pivot is associated with an overconstraint in the model. 
 However, Abaqus was not able to identify any chains of constraints that might 
 lead to an overconstraint at this node. This suggests that the model might be 
 in fact insufficiently constrained in this particular degree of freedom. 
 Please check the constraints used in this model. 


 ***WARNING: SOLVER PROBLEM.  ZERO PIVOT WHEN PROCESSING NODE 922 INSTANCE 
             ELASTIC_PLATE_1 D.O.F. 11
  Typically a zero pivot is associated with an overconstraint in the model. 
 However, Abaqus was not able to identify any chains of constraints that might 
 lead to an overconstraint at this node. This suggests that the model might be 
 in fact insufficiently constrained in this particular degree of freedom. 
 Please check the constraints used in this model. 


 ***WARNING: SOLVER PROBLEM.  ZERO PIVOT WHEN PROCESSING NODE 923 INSTANCE 
             ELASTIC_PLATE_1 D.O.F. 11
  Typically a zero pivot is associated with an overconstraint in the model. 
 However, Abaqus was not able to identify any chains of constraints that might 
 lead to an overconstraint at this node. This suggests that the model might be 
 in fact insufficiently constrained in this particular degree of freedom. 
 Please check the constraints used in this model. 


 ***WARNING: SOLVER PROBLEM.  ZERO PIVOT WHEN PROCESSING NODE 52 INSTANCE 
             ELASTIC_PLATE_1 D.O.F. 11
  Typically a zero pivot is associated with an overconstraint in the model. 
 However, Abaqus was not able to identify any chains of constraints that might 
 lead to an overconstraint at this node. This suggests that the model might be 
 in fact insufficiently constrained in this particular degree of freedom. 
 Please check the constraints used in this model. 


 ***WARNING: SOLVER PROBLEM.  ZERO PIVOT WHEN PROCESSING NODE 54 INSTANCE 
             ELASTIC_PLATE_1 D.O.F. 11
  Typically a zero pivot is associated with an overconstraint in the model. 
 However, Abaqus was not able to identify any chains of constraints that might 
 lead to an overconstraint at this node. This suggests that the model might be 
 in fact insufficiently constrained in this particular degree of freedom. 
 Please check the constraints used in this model. 


 ***WARNING: SOLVER PROBLEM.  ZERO PIVOT WHEN PROCESSING NODE 925 INSTANCE 
             ELASTIC_PLATE_1 D.O.F. 11
  Typically a zero pivot is associated with an overconstraint in the model. 
 However, Abaqus was not able to identify any chains of constraints that might 
 lead to an overconstraint at this node. This suggests that the model might be 
 in fact insufficiently constrained in this particular degree of freedom. 
 Please check the constraints used in this model. 


 ***WARNING: SOLVER PROBLEM.  ZERO PIVOT WHEN PROCESSING NODE 928 INSTANCE 
             ELASTIC_PLATE_1 D.O.F. 11
  Typically a zero pivot is associated with an overconstraint in the model. 
 However, Abaqus was not able to identify any chains of constraints that might 
 lead to an overconstraint at this node. This suggests that the model might be 
 in fact insufficiently constrained in this particular degree of freedom. 
 Please check the constraints used in this model. 


 ***WARNING: SOLVER PROBLEM.  ZERO PIVOT WHEN PROCESSING NODE 57 INSTANCE 
             ELASTIC_PLATE_1 D.O.F. 11
  Typically a zero pivot is associated with an overconstraint in the model. 
 However, Abaqus was not able to identify any chains of constraints that might 
 lead to an overconstraint at this node. This suggests that the model might be 
 in fact insufficiently constrained in this particular degree of freedom. 
 Please check the constraints used in this model. 


 ***WARNING: SOLVER PROBLEM.  ZERO PIVOT WHEN PROCESSING NODE 1454 INSTANCE 
             ELASTIC_PLATE_1 D.O.F. 11
  Typically a zero pivot is associated with an overconstraint in the model. 
 However, Abaqus was not able to identify any chains of constraints that might 
 lead to an overconstraint at this node. This suggests that the model might be 
 in fact insufficiently constrained in this particular degree of freedom. 
 Please check the constraints used in this model. 


 ***WARNING: SOLVER PROBLEM.  ZERO PIVOT WHEN PROCESSING NODE 583 INSTANCE 
             ELASTIC_PLATE_1 D.O.F. 11
  Typically a zero pivot is associated with an overconstraint in the model. 
 However, Abaqus was not able to identify any chains of constraints that might 
 lead to an overconstraint at this node. This suggests that the model might be 
 in fact insufficiently constrained in this particular degree of freedom. 
 Please check the constraints used in this model. 


 ***WARNING: SOLVER PROBLEM.  ZERO PIVOT WHEN PROCESSING NODE 991 INSTANCE 
             ELASTIC_PLATE_1 D.O.F. 11
  Typically a zero pivot is associated with an overconstraint in the model. 
 However, Abaqus was not able to identify any chains of constraints that might 
 lead to an overconstraint at this node. This suggests that the model might be 
 in fact insufficiently constrained in this particular degree of freedom. 
 Please check the constraints used in this model. 


 ***WARNING: SOLVER PROBLEM.  ZERO PIVOT WHEN PROCESSING NODE 120 INSTANCE 
             ELASTIC_PLATE_1 D.O.F. 11
  Typically a zero pivot is associated with an overconstraint in the model. 
 However, Abaqus was not able to identify any chains of constraints that might 
 lead to an overconstraint at this node. This suggests that the model might be 
 in fact insufficiently constrained in this particular degree of freedom. 
 Please check the constraints used in this model. 


 ***WARNING: SOLVER PROBLEM.  ZERO PIVOT WHEN PROCESSING NODE 119 INSTANCE 
             ELASTIC_PLATE_1 D.O.F. 11
  Typically a zero pivot is associated with an overconstraint in the model. 
 However, Abaqus was not able to identify any chains of constraints that might 
 lead to an overconstraint at this node. This suggests that the model might be 
 in fact insufficiently constrained in this particular degree of freedom. 
 Please check the constraints used in this model. 


 ***WARNING: SOLVER PROBLEM.  ZERO PIVOT WHEN PROCESSING NODE 990 INSTANCE 
             ELASTIC_PLATE_1 D.O.F. 11
  Typically a zero pivot is associated with an overconstraint in the model. 
 However, Abaqus was not able to identify any chains of constraints that might 
 lead to an overconstraint at this node. This suggests that the model might be 
 in fact insufficiently constrained in this particular degree of freedom. 
 Please check the constraints used in this model. 


 ***WARNING: SOLVER PROBLEM.  ZERO PIVOT WHEN PROCESSING NODE 5 INSTANCE 
             ELASTIC_PLATE_1 D.O.F. 11
  Typically a zero pivot is associated with an overconstraint in the model. 
 However, Abaqus was not able to identify any chains of constraints that might 
 lead to an overconstraint at this node. This suggests that the model might be 
 in fact insufficiently constrained in this particular degree of freedom. 
 Please check the constraints used in this model. 


 ***WARNING: SOLVER PROBLEM.  ZERO PIVOT WHEN PROCESSING NODE 876 INSTANCE 
             ELASTIC_PLATE_1 D.O.F. 11
  Typically a zero pivot is associated with an overconstraint in the model. 
 However, Abaqus was not able to identify any chains of constraints that might 
 lead to an overconstraint at this node. This suggests that the model might be 
 in fact insufficiently constrained in this particular degree of freedom. 
 Please check the constraints used in this model. 


 ***WARNING: SOLVER PROBLEM.  ZERO PIVOT WHEN PROCESSING NODE 936 INSTANCE 
             ELASTIC_PLATE_1 D.O.F. 11
  Typically a zero pivot is associated with an overconstraint in the model. 
 However, Abaqus was not able to identify any chains of constraints that might 
 lead to an overconstraint at this node. This suggests that the model might be 
 in fact insufficiently constrained in this particular degree of freedom. 
 Please check the constraints used in this model. 


 ***WARNING: SOLVER PROBLEM.  ZERO PIVOT WHEN PROCESSING NODE 65 INSTANCE 
             ELASTIC_PLATE_1 D.O.F. 11
  Typically a zero pivot is associated with an overconstraint in the model. 
 However, Abaqus was not able to identify any chains of constraints that might 
 lead to an overconstraint at this node. This suggests that the model might be 
 in fact insufficiently constrained in this particular degree of freedom. 
 Please check the constraints used in this model. 


 ***WARNING: SOLVER PROBLEM.  ZERO PIVOT WHEN PROCESSING NODE 66 INSTANCE 
             ELASTIC_PLATE_1 D.O.F. 11
  Typically a zero pivot is associated with an overconstraint in the model. 
 However, Abaqus was not able to identify any chains of constraints that might 
 lead to an overconstraint at this node. This suggests that the model might be 
 in fact insufficiently constrained in this particular degree of freedom. 
 Please check the constraints used in this model. 


 ***WARNING: SOLVER PROBLEM.  ZERO PIVOT WHEN PROCESSING NODE 937 INSTANCE 
             ELASTIC_PLATE_1 D.O.F. 11
  Typically a zero pivot is associated with an overconstraint in the model. 
 However, Abaqus was not able to identify any chains of constraints that might 
 lead to an overconstraint at this node. This suggests that the model might be 
 in fact insufficiently constrained in this particular degree of freedom. 
 Please check the constraints used in this model. 


 ***WARNING: SOLVER PROBLEM.  ZERO PIVOT WHEN PROCESSING NODE 67 INSTANCE 
             ELASTIC_PLATE_1 D.O.F. 11
  Typically a zero pivot is associated with an overconstraint in the model. 
 However, Abaqus was not able to identify any chains of constraints that might 
 lead to an overconstraint at this node. This suggests that the model might be 
 in fact insufficiently constrained in this particular degree of freedom. 
 Please check the constraints used in this model. 


 ***WARNING: SOLVER PROBLEM.  ZERO PIVOT WHEN PROCESSING NODE 938 INSTANCE 
             ELASTIC_PLATE_1 D.O.F. 11
  Typically a zero pivot is associated with an overconstraint in the model. 
 However, Abaqus was not able to identify any chains of constraints that might 
 lead to an overconstraint at this node. This suggests that the model might be 
 in fact insufficiently constrained in this particular degree of freedom. 
 Please check the constraints used in this model. 


 ***WARNING: SOLVER PROBLEM.  ZERO PIVOT WHEN PROCESSING NODE 939 INSTANCE 
             ELASTIC_PLATE_1 D.O.F. 11
  Typically a zero pivot is associated with an overconstraint in the model. 
 However, Abaqus was not able to identify any chains of constraints that might 
 lead to an overconstraint at this node. This suggests that the model might be 
 in fact insufficiently constrained in this particular degree of freedom. 
 Please check the constraints used in this model. 


 ***WARNING: Solver problem. Zero pivot when processing D.O.F. 11 of 49 nodes. 
             The nodes have been identified in node set 
             WarnNodeSolvProbZeroPiv_11_1_1_1_1.

               CONVERGENCE CHECKS FOR EQUILIBRIUM ITERATION     1


 AVERAGE FORCE                      0.200       TIME AVG. FORCE       0.200    
 LARGEST SCALED RESIDUAL FORCE      1.218E-05   AT NODE       2149   DOF  1
   INSTANCE: ELASTIC_PLATE_1                                                                 
  CORRESPONDING RESIDUAL FORCE      1.218E-05
 LARGEST INCREMENT OF DISP.         1.000E-06   AT NODE       2083   DOF  2
   INSTANCE: ELASTIC_PLATE_1                                                                 
 LARGEST CORRECTION TO DISP.        1.000E-06   AT NODE       2083   DOF  2
   INSTANCE: ELASTIC_PLATE_1                                                                 
          DISP.    CORRECTION TOO LARGE COMPARED TO DISP.    INCREMENT

 AVERAGE HEAT FLUX                  5.379E-29   TIME AVG. HEAT FLUX   1.000E-02
 LARGEST RESIDUAL HEAT FLUX        -2.736E-27   AT NODE       3022   DOF 11
   INSTANCE: ELASTIC_PLATE_1                                                                 
 LARGEST INCREMENT OF TEMP.          100.       AT NODE       2083   DOF 12
   INSTANCE: ELASTIC_PLATE_1                                                                 
 LARGEST CORRECTION TO TEMP.         100.       AT NODE       2083   DOF 12
   INSTANCE: ELASTIC_PLATE_1                                                                 
          THERE IS ZERO HEAT FLUX EVERYWHERE
 

 ***WARNING: THERE IS ZERO HEAT FLUX EVERYWHERE IN THE MODEL BASED ON THE 
             DEFAULT CRITERION. PLEASE CHECK THE VALUE OF THE AVERAGE HEAT FLUX 
             DURING THE CURRENT ITERATION TO VERIFY THAT THE HEAT FLUX IS SMALL 
             ENOUGH TO BE TREATED AS ZERO. IF NOT, PLEASE USE THE SOLUTION 
             CONTROLS TO RESET THE CRITERION FOR ZERO HEAT FLUX.
 
	UNSYMMETRIC NEW DIRECT SPARSE SOLVER RUNNING ON
 	1 HOST x 1 MPI RANK PER HOST x 1 THREAD PER RANK
        NUMBER OF EQUATIONS:  12918
        NUMBER OF RHS:        1
        NUMBER OF FLOPS:      9.052e+08
        SOLVER ELAPSED TIME:  41ms

               CONVERGENCE CHECKS FOR EQUILIBRIUM ITERATION     2


 AVERAGE FORCE                      0.200       TIME AVG. FORCE       0.200    
 LARGEST SCALED RESIDUAL FORCE     -2.107E-10   AT NODE        932   DOF  2
   INSTANCE: ELASTIC_PLATE_1                                                                 
  CORRESPONDING RESIDUAL FORCE     -2.107E-10
 LARGEST INCREMENT OF DISP.         1.000E-06   AT NODE       2083   DOF  2
   INSTANCE: ELASTIC_PLATE_1                                                                 
 LARGEST CORRECTION TO DISP.        4.498E-12   AT NODE       1770   DOF  1
   INSTANCE: ELASTIC_PLATE_1                                                                 
          THE FORCE     EQUILIBRIUM EQUATIONS HAVE CONVERGED

 AVERAGE HEAT FLUX                  5.403E-29   TIME AVG. HEAT FLUX   1.000E-02
 LARGEST RESIDUAL HEAT FLUX        -2.770E-27   AT NODE       2939   DOF 11
   INSTANCE: ELASTIC_PLATE_1                                                                 
 LARGEST INCREMENT OF TEMP.          100.       AT NODE       2083   DOF 12
   INSTANCE: ELASTIC_PLATE_1                                                                 
 LARGEST CORRECTION TO TEMP.       -1.661E-17   AT NODE       1454   DOF 11
   INSTANCE: ELASTIC_PLATE_1                                                                 
          THERE IS ZERO HEAT FLUX EVERYWHERE
 

 ***WARNING: THERE IS ZERO HEAT FLUX EVERYWHERE IN THE MODEL BASED ON THE 
             DEFAULT CRITERION. PLEASE CHECK THE VALUE OF THE AVERAGE HEAT FLUX 
             DURING THE CURRENT ITERATION TO VERIFY THAT THE HEAT FLUX IS SMALL 
             ENOUGH TO BE TREATED AS ZERO. IF NOT, PLEASE USE THE SOLUTION 
             CONTROLS TO RESET THE CRITERION FOR ZERO HEAT FLUX.

 MAXIMUM NON-PRESCRIBED INCREMENT IN TEMPERATURE IS   2.676E-17

 ITERATION SUMMARY FOR THE INCREMENT:   2 TOTAL ITERATIONS, OF WHICH
   0 ARE SEVERE DISCONTINUITY ITERATIONS AND  2 ARE EQUILIBRIUM ITERATIONS.

 TIME INCREMENT COMPLETED   1.00    ,  FRACTION OF STEP COMPLETED  1.000E-02
 STEP TIME COMPLETED        1.00    ,  TOTAL TIME COMPLETED         1.00    


  INCREMENT     2 STARTS. ATTEMPT NUMBER  1, TIME INCREMENT   1.00    
 
	UNSYMMETRIC NEW DIRECT SPARSE SOLVER RUNNING ON
 	1 HOST x 1 MPI RANK PER HOST x 1 THREAD PER RANK
        NUMBER OF EQUATIONS:  16080
        NUMBER OF RHS:        1
        NUMBER OF FLOPS:      1.760e+09
        SOLVER ELAPSED TIME:  72ms

               CONVERGENCE CHECKS FOR EQUILIBRIUM ITERATION     1


 AVERAGE FORCE                      0.800       TIME AVG. FORCE       0.500    
 LARGEST SCALED RESIDUAL FORCE     -6.493E-10   AT NODE        929   DOF  1
   INSTANCE: ELASTIC_PLATE_1                                                                 
  CORRESPONDING RESIDUAL FORCE     -6.493E-10
 LARGEST INCREMENT OF DISP.         1.000E-06   AT NODE       2083   DOF  2
   INSTANCE: ELASTIC_PLATE_1                                                                 
 LARGEST CORRECTION TO DISP.        8.995E-12   AT NODE       1770   DOF  1
   INSTANCE: ELASTIC_PLATE_1                                                                 
          THE FORCE     EQUILIBRIUM RESPONSE WAS LINEAR IN THIS INCREMENT

 AVERAGE HEAT FLUX                  2.210E-04   TIME AVG. HEAT FLUX   2.210E-04
 LARGEST RESIDUAL HEAT FLUX         3.706E-02   AT NODE       3117   DOF 12
   INSTANCE: ELASTIC_PLATE_1                                                                 
 LARGEST INCREMENT OF TEMP.          4.11       AT NODE       2861   DOF 12
   INSTANCE: ELASTIC_PLATE_1                                                                 
 LARGEST CORRECTION TO TEMP.        -100.       AT NODE       2083   DOF 12
   INSTANCE: ELASTIC_PLATE_1                                                                 
          HEAT FLUX EQUILIBRIUM NOT ACHIEVED WITHIN TOLERANCE.
 
	UNSYMMETRIC NEW DIRECT SPARSE SOLVER RUNNING ON
 	1 HOST x 1 MPI RANK PER HOST x 1 THREAD PER RANK
        NUMBER OF EQUATIONS:  16080
        NUMBER OF RHS:        1
        NUMBER OF FLOPS:      1.760e+09
        SOLVER ELAPSED TIME:  69ms

               CONVERGENCE CHECKS FOR EQUILIBRIUM ITERATION     2


 AVERAGE FORCE                      0.800       TIME AVG. FORCE       0.500    
 LARGEST SCALED RESIDUAL FORCE      1.015E-13   AT NODE       3008   DOF  2
   INSTANCE: ELASTIC_PLATE_1                                                                 
  CORRESPONDING RESIDUAL FORCE      1.015E-13
 LARGEST INCREMENT OF DISP.         1.000E-06   AT NODE       2083   DOF  2
   INSTANCE: ELASTIC_PLATE_1                                                                 
 LARGEST CORRECTION TO DISP.        2.714E-16   AT NODE        875   DOF  2
   INSTANCE: ELASTIC_PLATE_1                                                                 
          THE FORCE     EQUILIBRIUM EQUATIONS HAVE CONVERGED

 AVERAGE HEAT FLUX                  2.207E-04   TIME AVG. HEAT FLUX   2.207E-04
 LARGEST RESIDUAL HEAT FLUX         5.731E-03   AT NODE       3097   DOF 12
   INSTANCE: ELASTIC_PLATE_1                                                                 
 LARGEST INCREMENT OF TEMP.          12.8       AT NODE       2857   DOF 12
   INSTANCE: ELASTIC_PLATE_1                                                                 
 LARGEST CORRECTION TO TEMP.         8.73       AT NODE       2218   DOF 12
   INSTANCE: ELASTIC_PLATE_1                                                                 
          HEAT FLUX EQUILIBRIUM NOT ACHIEVED WITHIN TOLERANCE.
 
	UNSYMMETRIC NEW DIRECT SPARSE SOLVER RUNNING ON
 	1 HOST x 1 MPI RANK PER HOST x 1 THREAD PER RANK
        NUMBER OF EQUATIONS:  16080
        NUMBER OF RHS:        1
        NUMBER OF FLOPS:      1.760e+09
        SOLVER ELAPSED TIME:  70ms

               CONVERGENCE CHECKS FOR EQUILIBRIUM ITERATION     3


 AVERAGE FORCE                      0.800       TIME AVG. FORCE       0.500    
 LARGEST SCALED RESIDUAL FORCE     -9.637E-14   AT NODE       2358   DOF  2
   INSTANCE: ELASTIC_PLATE_1                                                                 
  CORRESPONDING RESIDUAL FORCE     -9.637E-14
 LARGEST INCREMENT OF DISP.         1.000E-06   AT NODE       2083   DOF  2
   INSTANCE: ELASTIC_PLATE_1                                                                 
 LARGEST CORRECTION TO DISP.        1.959E-20   AT NODE        110   DOF  1
   INSTANCE: ELASTIC_PLATE_1                                                                 
          THE FORCE     EQUILIBRIUM EQUATIONS HAVE CONVERGED

 AVERAGE HEAT FLUX                  2.202E-04   TIME AVG. HEAT FLUX   2.202E-04
 LARGEST RESIDUAL HEAT FLUX         1.032E-03   AT NODE       3097   DOF 12
   INSTANCE: ELASTIC_PLATE_1                                                                 
 LARGEST INCREMENT OF TEMP.          14.1       AT NODE       2857   DOF 12
   INSTANCE: ELASTIC_PLATE_1                                                                 
 LARGEST CORRECTION TO TEMP.         1.28       AT NODE       2132   DOF 12
   INSTANCE: ELASTIC_PLATE_1                                                                 
          HEAT FLUX EQUILIBRIUM NOT ACHIEVED WITHIN TOLERANCE.
 
	UNSYMMETRIC NEW DIRECT SPARSE SOLVER RUNNING ON
 	1 HOST x 1 MPI RANK PER HOST x 1 THREAD PER RANK
        NUMBER OF EQUATIONS:  16080
        NUMBER OF RHS:        1
        NUMBER OF FLOPS:      1.760e+09
        SOLVER ELAPSED TIME:  69ms

               CONVERGENCE CHECKS FOR EQUILIBRIUM ITERATION     4


 AVERAGE FORCE                      0.800       TIME AVG. FORCE       0.500    
 LARGEST SCALED RESIDUAL FORCE     -9.193E-14   AT NODE       2678   DOF  2
   INSTANCE: ELASTIC_PLATE_1                                                                 
  CORRESPONDING RESIDUAL FORCE     -9.193E-14
 LARGEST INCREMENT OF DISP.         1.000E-06   AT NODE       2083   DOF  2
   INSTANCE: ELASTIC_PLATE_1                                                                 
 LARGEST CORRECTION TO DISP.       -2.037E-22   AT NODE       2757   DOF  2
   INSTANCE: ELASTIC_PLATE_1                                                                 
          THE FORCE     EQUILIBRIUM EQUATIONS HAVE CONVERGED

 AVERAGE HEAT FLUX                  2.201E-04   TIME AVG. HEAT FLUX   2.201E-04
 LARGEST RESIDUAL HEAT FLUX         2.011E-04   AT NODE       3097   DOF 12
   INSTANCE: ELASTIC_PLATE_1                                                                 
 LARGEST INCREMENT OF TEMP.          14.4       AT NODE       2857   DOF 12
   INSTANCE: ELASTIC_PLATE_1                                                                 
 LARGEST CORRECTION TO TEMP.        0.224       AT NODE       2132   DOF 12
   INSTANCE: ELASTIC_PLATE_1                                                                 
          HEAT FLUX EQUILIBRIUM NOT ACHIEVED WITHIN TOLERANCE.
 
	UNSYMMETRIC NEW DIRECT SPARSE SOLVER RUNNING ON
 	1 HOST x 1 MPI RANK PER HOST x 1 THREAD PER RANK
        NUMBER OF EQUATIONS:  16080
        NUMBER OF RHS:        1
        NUMBER OF FLOPS:      1.760e+09
        SOLVER ELAPSED TIME:  80ms

               CONVERGENCE CHECKS FOR EQUILIBRIUM ITERATION     5


 AVERAGE FORCE                      0.800       TIME AVG. FORCE       0.500    
 LARGEST SCALED RESIDUAL FORCE     -9.392E-14   AT NODE       2358   DOF  2
   INSTANCE: ELASTIC_PLATE_1                                                                 
  CORRESPONDING RESIDUAL FORCE     -9.392E-14
 LARGEST INCREMENT OF DISP.         1.000E-06   AT NODE       2083   DOF  2
   INSTANCE: ELASTIC_PLATE_1                                                                 
 LARGEST CORRECTION TO DISP.       -2.005E-22   AT NODE       2849   DOF  2
   INSTANCE: ELASTIC_PLATE_1                                                                 
          THE FORCE     EQUILIBRIUM EQUATIONS HAVE CONVERGED

 AVERAGE HEAT FLUX                  2.201E-04   TIME AVG. HEAT FLUX   2.201E-04
 LARGEST RESIDUAL HEAT FLUX         4.113E-05   AT NODE       3057   DOF 12
   INSTANCE: ELASTIC_PLATE_1                                                                 
 LARGEST INCREMENT OF TEMP.          14.4       AT NODE       2857   DOF 12
   INSTANCE: ELASTIC_PLATE_1                                                                 
 LARGEST CORRECTION TO TEMP.        4.273E-02   AT NODE       2132   DOF 12
   INSTANCE: ELASTIC_PLATE_1                                                                 
          HEAT FLUX EQUILIBRIUM NOT ACHIEVED WITHIN TOLERANCE.
 
	UNSYMMETRIC NEW DIRECT SPARSE SOLVER RUNNING ON
 	1 HOST x 1 MPI RANK PER HOST x 1 THREAD PER RANK
        NUMBER OF EQUATIONS:  16080
        NUMBER OF RHS:        1
        NUMBER OF FLOPS:      1.760e+09
        SOLVER ELAPSED TIME:  69ms

               CONVERGENCE CHECKS FOR EQUILIBRIUM ITERATION     6


 AVERAGE FORCE                      0.800       TIME AVG. FORCE       0.500    
 LARGEST SCALED RESIDUAL FORCE     -1.075E-13   AT NODE       2678   DOF  2
   INSTANCE: ELASTIC_PLATE_1                                                                 
  CORRESPONDING RESIDUAL FORCE     -1.075E-13
 LARGEST INCREMENT OF DISP.         1.000E-06   AT NODE       2083   DOF  2
   INSTANCE: ELASTIC_PLATE_1                                                                 
 LARGEST CORRECTION TO DISP.        1.660E-22   AT NODE       2678   DOF  2
   INSTANCE: ELASTIC_PLATE_1                                                                 
          THE FORCE     EQUILIBRIUM EQUATIONS HAVE CONVERGED

 AVERAGE HEAT FLUX                  2.201E-04   TIME AVG. HEAT FLUX   2.201E-04
 LARGEST RESIDUAL HEAT FLUX        -9.465E-06   AT NODE       2898   DOF 12
   INSTANCE: ELASTIC_PLATE_1                                                                 
 LARGEST INCREMENT OF TEMP.          14.4       AT NODE       2857   DOF 12
   INSTANCE: ELASTIC_PLATE_1                                                                 
 LARGEST CORRECTION TO TEMP.        8.607E-03   AT NODE       2132   DOF 12
   INSTANCE: ELASTIC_PLATE_1                                                                 
          HEAT FLUX EQUILIBRIUM NOT ACHIEVED WITHIN TOLERANCE.
 
	UNSYMMETRIC NEW DIRECT SPARSE SOLVER RUNNING ON
 	1 HOST x 1 MPI RANK PER HOST x 1 THREAD PER RANK
        NUMBER OF EQUATIONS:  16080
        NUMBER OF RHS:        1
        NUMBER OF FLOPS:      1.760e+09
        SOLVER ELAPSED TIME:  69ms

               CONVERGENCE CHECKS FOR EQUILIBRIUM ITERATION     7


 AVERAGE FORCE                      0.800       TIME AVG. FORCE       0.500    
 LARGEST SCALED RESIDUAL FORCE     -8.638E-14   AT NODE       2358   DOF  2
   INSTANCE: ELASTIC_PLATE_1                                                                 
  CORRESPONDING RESIDUAL FORCE     -8.638E-14
 LARGEST INCREMENT OF DISP.         1.000E-06   AT NODE       2083   DOF  2
   INSTANCE: ELASTIC_PLATE_1                                                                 
 LARGEST CORRECTION TO DISP.       -1.881E-22   AT NODE       2678   DOF  2
   INSTANCE: ELASTIC_PLATE_1                                                                 
          THE FORCE     EQUILIBRIUM EQUATIONS HAVE CONVERGED

 AVERAGE HEAT FLUX                  2.201E-04   TIME AVG. HEAT FLUX   2.201E-04
 LARGEST RESIDUAL HEAT FLUX        -2.208E-06   AT NODE       2898   DOF 12
   INSTANCE: ELASTIC_PLATE_1                                                                 
 LARGEST INCREMENT OF TEMP.          14.4       AT NODE       2857   DOF 12
   INSTANCE: ELASTIC_PLATE_1                                                                 
 LARGEST CORRECTION TO TEMP.       -1.886E-03   AT NODE       2131   DOF 12
   INSTANCE: ELASTIC_PLATE_1                                                                 
          HEAT FLUX EQUILIBRIUM NOT ACHIEVED WITHIN TOLERANCE.
 
	UNSYMMETRIC NEW DIRECT SPARSE SOLVER RUNNING ON
 	1 HOST x 1 MPI RANK PER HOST x 1 THREAD PER RANK
        NUMBER OF EQUATIONS:  16080
        NUMBER OF RHS:        1
        NUMBER OF FLOPS:      1.760e+09
        SOLVER ELAPSED TIME:  73ms

               CONVERGENCE CHECKS FOR EQUILIBRIUM ITERATION     8


 AVERAGE FORCE                      0.800       TIME AVG. FORCE       0.500    
 LARGEST SCALED RESIDUAL FORCE     -1.070E-13   AT NODE       2678   DOF  2
   INSTANCE: ELASTIC_PLATE_1                                                                 
  CORRESPONDING RESIDUAL FORCE     -1.070E-13
 LARGEST INCREMENT OF DISP.         1.000E-06   AT NODE       2083   DOF  2
   INSTANCE: ELASTIC_PLATE_1                                                                 
 LARGEST CORRECTION TO DISP.        2.011E-22   AT NODE       2537   DOF  2
   INSTANCE: ELASTIC_PLATE_1                                                                 
          THE FORCE     EQUILIBRIUM EQUATIONS HAVE CONVERGED

 AVERAGE HEAT FLUX                  2.201E-04   TIME AVG. HEAT FLUX   2.201E-04
 LARGEST RESIDUAL HEAT FLUX        -5.167E-07   AT NODE       3058   DOF 12
   INSTANCE: ELASTIC_PLATE_1                                                                 
 LARGEST INCREMENT OF TEMP.          14.4       AT NODE       2857   DOF 12
   INSTANCE: ELASTIC_PLATE_1                                                                 
 LARGEST CORRECTION TO TEMP.       -4.393E-04   AT NODE       2131   DOF 12
   INSTANCE: ELASTIC_PLATE_1                                                                 
          THE HEAT FLUX EQUILIBRIUM EQUATIONS HAVE CONVERGED

 MAXIMUM NON-PRESCRIBED INCREMENT IN TEMPERATURE IS    14.4    

 ITERATION SUMMARY FOR THE INCREMENT:   8 TOTAL ITERATIONS, OF WHICH
   0 ARE SEVERE DISCONTINUITY ITERATIONS AND  8 ARE EQUILIBRIUM ITERATIONS.

 TIME INCREMENT COMPLETED   1.00    ,  FRACTION OF STEP COMPLETED  2.000E-02
 STEP TIME COMPLETED        2.00    ,  TOTAL TIME COMPLETED         2.00    


  INCREMENT     3 STARTS. ATTEMPT NUMBER  1, TIME INCREMENT   1.00    
 
	UNSYMMETRIC NEW DIRECT SPARSE SOLVER RUNNING ON
 	1 HOST x 1 MPI RANK PER HOST x 1 THREAD PER RANK
        NUMBER OF EQUATIONS:  16080
        NUMBER OF RHS:        1
        NUMBER OF FLOPS:      1.760e+09
        SOLVER ELAPSED TIME:  72ms

               CONVERGENCE CHECKS FOR EQUILIBRIUM ITERATION     1


 AVERAGE FORCE                       1.20       TIME AVG. FORCE       0.733    
 LARGEST SCALED RESIDUAL FORCE      1.040E-09   AT NODE        927   DOF  2
   INSTANCE: ELASTIC_PLATE_1                                                                 
  CORRESPONDING RESIDUAL FORCE      1.040E-09
 LARGEST INCREMENT OF DISP.         1.000E-06   AT NODE       2083   DOF  2
   INSTANCE: ELASTIC_PLATE_1                                                                 
 LARGEST CORRECTION TO DISP.        8.995E-12   AT NODE       1770   DOF  1
   INSTANCE: ELASTIC_PLATE_1                                                                 
          THE FORCE     EQUILIBRIUM RESPONSE WAS LINEAR IN THIS INCREMENT

 AVERAGE HEAT FLUX                  4.258E-03   TIME AVG. HEAT FLUX   2.239E-03
 LARGEST RESIDUAL HEAT FLUX        -2.650E-03   AT NODE       3017   DOF 12
   INSTANCE: ELASTIC_PLATE_1                                                                 
 LARGEST INCREMENT OF TEMP.          11.2       AT NODE       2861   DOF 12
   INSTANCE: ELASTIC_PLATE_1                                                                 
 LARGEST CORRECTION TO TEMP.        -3.25       AT NODE       2857   DOF 12
   INSTANCE: ELASTIC_PLATE_1                                                                 
          HEAT FLUX EQUILIBRIUM NOT ACHIEVED WITHIN TOLERANCE.
 
	UNSYMMETRIC NEW DIRECT SPARSE SOLVER RUNNING ON
 	1 HOST x 1 MPI RANK PER HOST x 1 THREAD PER RANK
        NUMBER OF EQUATIONS:  16080
        NUMBER OF RHS:        1
        NUMBER OF FLOPS:      1.760e+09
        SOLVER ELAPSED TIME:  66ms

               CONVERGENCE CHECKS FOR EQUILIBRIUM ITERATION     2


 AVERAGE FORCE                       1.20       TIME AVG. FORCE       0.733    
 LARGEST SCALED RESIDUAL FORCE     -2.071E-13   AT NODE        926   DOF  2
   INSTANCE: ELASTIC_PLATE_1                                                                 
  CORRESPONDING RESIDUAL FORCE     -2.071E-13
 LARGEST INCREMENT OF DISP.         1.000E-06   AT NODE       2083   DOF  2
   INSTANCE: ELASTIC_PLATE_1                                                                 
 LARGEST CORRECTION TO DISP.        4.381E-16   AT NODE          4   DOF  2
   INSTANCE: ELASTIC_PLATE_1                                                                 
          THE FORCE     EQUILIBRIUM EQUATIONS HAVE CONVERGED

 AVERAGE HEAT FLUX                  5.109E-03   TIME AVG. HEAT FLUX   2.665E-03
 LARGEST RESIDUAL HEAT FLUX        -5.200E-04   AT NODE       2957   DOF 12
   INSTANCE: ELASTIC_PLATE_1                                                                 
 LARGEST INCREMENT OF TEMP.          10.6       AT NODE       2861   DOF 12
   INSTANCE: ELASTIC_PLATE_1                                                                 
 LARGEST CORRECTION TO TEMP.       -0.574       AT NODE       2857   DOF 12
   INSTANCE: ELASTIC_PLATE_1                                                                 
          HEAT FLUX EQUILIBRIUM NOT ACHIEVED WITHIN TOLERANCE.
 
	UNSYMMETRIC NEW DIRECT SPARSE SOLVER RUNNING ON
 	1 HOST x 1 MPI RANK PER HOST x 1 THREAD PER RANK
        NUMBER OF EQUATIONS:  16080
        NUMBER OF RHS:        1
        NUMBER OF FLOPS:      1.760e+09
        SOLVER ELAPSED TIME:  72ms

               CONVERGENCE CHECKS FOR EQUILIBRIUM ITERATION     3


 AVERAGE FORCE                       1.20       TIME AVG. FORCE       0.733    
 LARGEST SCALED RESIDUAL FORCE      6.661E-14   AT NODE       2999   DOF  2
   INSTANCE: ELASTIC_PLATE_1                                                                 
  CORRESPONDING RESIDUAL FORCE      6.661E-14
 LARGEST INCREMENT OF DISP.         1.000E-06   AT NODE       2083   DOF  2
   INSTANCE: ELASTIC_PLATE_1                                                                 
 LARGEST CORRECTION TO DISP.       -4.265E-20   AT NODE         56   DOF  2
   INSTANCE: ELASTIC_PLATE_1                                                                 
          THE FORCE     EQUILIBRIUM EQUATIONS HAVE CONVERGED

 AVERAGE HEAT FLUX                  4.645E-03   TIME AVG. HEAT FLUX   2.433E-03
 LARGEST RESIDUAL HEAT FLUX         1.072E-04   AT NODE       2938   DOF 12
   INSTANCE: ELASTIC_PLATE_1                                                                 
 LARGEST INCREMENT OF TEMP.          10.5       AT NODE       2861   DOF 12
   INSTANCE: ELASTIC_PLATE_1                                                                 
 LARGEST CORRECTION TO TEMP.       -0.110       AT NODE       2538   DOF 12
   INSTANCE: ELASTIC_PLATE_1                                                                 
          HEAT FLUX EQUILIBRIUM NOT ACHIEVED WITHIN TOLERANCE.
 
	UNSYMMETRIC NEW DIRECT SPARSE SOLVER RUNNING ON
 	1 HOST x 1 MPI RANK PER HOST x 1 THREAD PER RANK
        NUMBER OF EQUATIONS:  16080
        NUMBER OF RHS:        1
        NUMBER OF FLOPS:      1.760e+09
        SOLVER ELAPSED TIME:  70ms

               CONVERGENCE CHECKS FOR EQUILIBRIUM ITERATION     4


 AVERAGE FORCE                       1.20       TIME AVG. FORCE       0.733    
 LARGEST SCALED RESIDUAL FORCE     -7.949E-14   AT NODE       2836   DOF  2
   INSTANCE: ELASTIC_PLATE_1                                                                 
  CORRESPONDING RESIDUAL FORCE     -7.949E-14
 LARGEST INCREMENT OF DISP.         1.000E-06   AT NODE       2083   DOF  2
   INSTANCE: ELASTIC_PLATE_1                                                                 
 LARGEST CORRECTION TO DISP.       -2.160E-22   AT NODE       2678   DOF  2
   INSTANCE: ELASTIC_PLATE_1                                                                 
          THE FORCE     EQUILIBRIUM EQUATIONS HAVE CONVERGED

 AVERAGE HEAT FLUX                  4.645E-03   TIME AVG. HEAT FLUX   2.433E-03
 LARGEST RESIDUAL HEAT FLUX         2.503E-05   AT NODE       3058   DOF 12
   INSTANCE: ELASTIC_PLATE_1                                                                 
 LARGEST INCREMENT OF TEMP.          10.5       AT NODE       2861   DOF 12
   INSTANCE: ELASTIC_PLATE_1                                                                 
 LARGEST CORRECTION TO TEMP.       -2.234E-02   AT NODE       2538   DOF 12
   INSTANCE: ELASTIC_PLATE_1                                                                 
          HEAT FLUX EQUILIBRIUM NOT ACHIEVED WITHIN TOLERANCE.
 
	UNSYMMETRIC NEW DIRECT SPARSE SOLVER RUNNING ON
 	1 HOST x 1 MPI RANK PER HOST x 1 THREAD PER RANK
        NUMBER OF EQUATIONS:  16080
        NUMBER OF RHS:        1
        NUMBER OF FLOPS:      1.760e+09
        SOLVER ELAPSED TIME:  80ms

               CONVERGENCE CHECKS FOR EQUILIBRIUM ITERATION     5


 AVERAGE FORCE                       1.20       TIME AVG. FORCE       0.733    
 LARGEST SCALED RESIDUAL FORCE      7.017E-14   AT NODE       3140   DOF  2
   INSTANCE: ELASTIC_PLATE_1                                                                 
  CORRESPONDING RESIDUAL FORCE      7.017E-14
 LARGEST INCREMENT OF DISP.         1.000E-06   AT NODE       2083   DOF  2
   INSTANCE: ELASTIC_PLATE_1                                                                 
 LARGEST CORRECTION TO DISP.        2.741E-22   AT NODE       2533   DOF  2
   INSTANCE: ELASTIC_PLATE_1                                                                 
          THE FORCE     EQUILIBRIUM EQUATIONS HAVE CONVERGED

 AVERAGE HEAT FLUX                  4.645E-03   TIME AVG. HEAT FLUX   2.433E-03
 LARGEST RESIDUAL HEAT FLUX         5.844E-06   AT NODE       3058   DOF 12
   INSTANCE: ELASTIC_PLATE_1                                                                 
 LARGEST INCREMENT OF TEMP.          10.4       AT NODE       2861   DOF 12
   INSTANCE: ELASTIC_PLATE_1                                                                 
 LARGEST CORRECTION TO TEMP.        4.985E-03   AT NODE       2217   DOF 12
   INSTANCE: ELASTIC_PLATE_1                                                                 
          THE HEAT FLUX EQUILIBRIUM EQUATIONS HAVE CONVERGED

 MAXIMUM NON-PRESCRIBED INCREMENT IN TEMPERATURE IS    10.4    

 ITERATION SUMMARY FOR THE INCREMENT:   5 TOTAL ITERATIONS, OF WHICH
   0 ARE SEVERE DISCONTINUITY ITERATIONS AND  5 ARE EQUILIBRIUM ITERATIONS.

 TIME INCREMENT COMPLETED   1.00    ,  FRACTION OF STEP COMPLETED  3.000E-02
 STEP TIME COMPLETED        3.00    ,  TOTAL TIME COMPLETED         3.00    


  INCREMENT     4 STARTS. ATTEMPT NUMBER  1, TIME INCREMENT   1.00    
 
	UNSYMMETRIC NEW DIRECT SPARSE SOLVER RUNNING ON
 	1 HOST x 1 MPI RANK PER HOST x 1 THREAD PER RANK
        NUMBER OF EQUATIONS:  16080
        NUMBER OF RHS:        1
        NUMBER OF FLOPS:      1.760e+09
        SOLVER ELAPSED TIME:  67ms

               CONVERGENCE CHECKS FOR EQUILIBRIUM ITERATION     1


 AVERAGE FORCE                       1.60       TIME AVG. FORCE       0.949    
 LARGEST SCALED RESIDUAL FORCE      1.623E-09   AT NODE        927   DOF  2
   INSTANCE: ELASTIC_PLATE_1                                                                 
  CORRESPONDING RESIDUAL FORCE      1.623E-09
 LARGEST INCREMENT OF DISP.         1.000E-06   AT NODE       2083   DOF  2
   INSTANCE: ELASTIC_PLATE_1                                                                 
 LARGEST CORRECTION TO DISP.        8.995E-12   AT NODE       1764   DOF  1
   INSTANCE: ELASTIC_PLATE_1                                                                 
          THE FORCE     EQUILIBRIUM RESPONSE WAS LINEAR IN THIS INCREMENT

 AVERAGE HEAT FLUX                  4.258E-03   TIME AVG. HEAT FLUX   3.041E-03
 LARGEST RESIDUAL HEAT FLUX        -1.664E-03   AT NODE       3177   DOF 12
   INSTANCE: ELASTIC_PLATE_1                                                                 
 LARGEST INCREMENT OF TEMP.          8.27       AT NODE       2857   DOF 12
   INSTANCE: ELASTIC_PLATE_1                                                                 
 LARGEST CORRECTION TO TEMP.        -2.18       AT NODE       2861   DOF 12
   INSTANCE: ELASTIC_PLATE_1                                                                 
          HEAT FLUX EQUILIBRIUM NOT ACHIEVED WITHIN TOLERANCE.
 
	UNSYMMETRIC NEW DIRECT SPARSE SOLVER RUNNING ON
 	1 HOST x 1 MPI RANK PER HOST x 1 THREAD PER RANK
        NUMBER OF EQUATIONS:  16080
        NUMBER OF RHS:        1
        NUMBER OF FLOPS:      1.760e+09
        SOLVER ELAPSED TIME:  68ms

               CONVERGENCE CHECKS FOR EQUILIBRIUM ITERATION     2


 AVERAGE FORCE                       1.60       TIME AVG. FORCE       0.949    
 LARGEST SCALED RESIDUAL FORCE     -3.706E-13   AT NODE        926   DOF  2
   INSTANCE: ELASTIC_PLATE_1                                                                 
  CORRESPONDING RESIDUAL FORCE     -3.706E-13
 LARGEST INCREMENT OF DISP.         1.000E-06   AT NODE       2083   DOF  2
   INSTANCE: ELASTIC_PLATE_1                                                                 
 LARGEST CORRECTION TO DISP.        6.048E-16   AT NODE          4   DOF  2
   INSTANCE: ELASTIC_PLATE_1                                                                 
          THE FORCE     EQUILIBRIUM EQUATIONS HAVE CONVERGED

 AVERAGE HEAT FLUX                  4.258E-03   TIME AVG. HEAT FLUX   3.041E-03
 LARGEST RESIDUAL HEAT FLUX        -3.156E-04   AT NODE       3117   DOF 12
   INSTANCE: ELASTIC_PLATE_1                                                                 
 LARGEST INCREMENT OF TEMP.          7.91       AT NODE       2861   DOF 12
   INSTANCE: ELASTIC_PLATE_1                                                                 
 LARGEST CORRECTION TO TEMP.       -0.365       AT NODE       2857   DOF 12
   INSTANCE: ELASTIC_PLATE_1                                                                 
          HEAT FLUX EQUILIBRIUM NOT ACHIEVED WITHIN TOLERANCE.
 
	UNSYMMETRIC NEW DIRECT SPARSE SOLVER RUNNING ON
 	1 HOST x 1 MPI RANK PER HOST x 1 THREAD PER RANK
        NUMBER OF EQUATIONS:  16080
        NUMBER OF RHS:        1
        NUMBER OF FLOPS:      1.760e+09
        SOLVER ELAPSED TIME:  76ms

               CONVERGENCE CHECKS FOR EQUILIBRIUM ITERATION     3


 AVERAGE FORCE                       1.60       TIME AVG. FORCE       0.949    
 LARGEST SCALED RESIDUAL FORCE      7.239E-14   AT NODE       2297   DOF  2
   INSTANCE: ELASTIC_PLATE_1                                                                 
  CORRESPONDING RESIDUAL FORCE      7.239E-14
 LARGEST INCREMENT OF DISP.         1.000E-06   AT NODE       2083   DOF  2
   INSTANCE: ELASTIC_PLATE_1                                                                 
 LARGEST CORRECTION TO DISP.       -7.486E-20   AT NODE        927   DOF  2
   INSTANCE: ELASTIC_PLATE_1                                                                 
          THE FORCE     EQUILIBRIUM EQUATIONS HAVE CONVERGED

 AVERAGE HEAT FLUX                  3.930E-03   TIME AVG. HEAT FLUX   2.932E-03
 LARGEST RESIDUAL HEAT FLUX        -6.325E-05   AT NODE       2937   DOF 12
   INSTANCE: ELASTIC_PLATE_1                                                                 
 LARGEST INCREMENT OF TEMP.          7.84       AT NODE       2861   DOF 12
   INSTANCE: ELASTIC_PLATE_1                                                                 
 LARGEST CORRECTION TO TEMP.       -6.769E-02   AT NODE       2538   DOF 12
   INSTANCE: ELASTIC_PLATE_1                                                                 
          HEAT FLUX EQUILIBRIUM NOT ACHIEVED WITHIN TOLERANCE.
 
	UNSYMMETRIC NEW DIRECT SPARSE SOLVER RUNNING ON
 	1 HOST x 1 MPI RANK PER HOST x 1 THREAD PER RANK
        NUMBER OF EQUATIONS:  16080
        NUMBER OF RHS:        1
        NUMBER OF FLOPS:      1.760e+09
        SOLVER ELAPSED TIME:  68ms

               CONVERGENCE CHECKS FOR EQUILIBRIUM ITERATION     4


 AVERAGE FORCE                       1.60       TIME AVG. FORCE       0.949    
 LARGEST SCALED RESIDUAL FORCE      6.439E-14   AT NODE       2274   DOF  2
   INSTANCE: ELASTIC_PLATE_1                                                                 
  CORRESPONDING RESIDUAL FORCE      6.439E-14
 LARGEST INCREMENT OF DISP.         1.000E-06   AT NODE       2083   DOF  2
   INSTANCE: ELASTIC_PLATE_1                                                                 
 LARGEST CORRECTION TO DISP.        2.213E-22   AT NODE       2533   DOF  2
   INSTANCE: ELASTIC_PLATE_1                                                                 
          THE FORCE     EQUILIBRIUM EQUATIONS HAVE CONVERGED

 AVERAGE HEAT FLUX                  3.930E-03   TIME AVG. HEAT FLUX   2.932E-03
 LARGEST RESIDUAL HEAT FLUX         1.357E-05   AT NODE       2898   DOF 12
   INSTANCE: ELASTIC_PLATE_1                                                                 
 LARGEST INCREMENT OF TEMP.          7.83       AT NODE       2861   DOF 12
   INSTANCE: ELASTIC_PLATE_1                                                                 
 LARGEST CORRECTION TO TEMP.       -1.334E-02   AT NODE       2218   DOF 12
   INSTANCE: ELASTIC_PLATE_1                                                                 
          THE HEAT FLUX EQUILIBRIUM EQUATIONS HAVE CONVERGED

 MAXIMUM NON-PRESCRIBED INCREMENT IN TEMPERATURE IS    7.83    

 ITERATION SUMMARY FOR THE INCREMENT:   4 TOTAL ITERATIONS, OF WHICH
   0 ARE SEVERE DISCONTINUITY ITERATIONS AND  4 ARE EQUILIBRIUM ITERATIONS.

 TIME INCREMENT COMPLETED   1.00    ,  FRACTION OF STEP COMPLETED  4.000E-02
 STEP TIME COMPLETED        4.00    ,  TOTAL TIME COMPLETED         4.00    


  INCREMENT     5 STARTS. ATTEMPT NUMBER  1, TIME INCREMENT   1.00    
 
	UNSYMMETRIC NEW DIRECT SPARSE SOLVER RUNNING ON
 	1 HOST x 1 MPI RANK PER HOST x 1 THREAD PER RANK
        NUMBER OF EQUATIONS:  16080
        NUMBER OF RHS:        1
        NUMBER OF FLOPS:      1.760e+09
        SOLVER ELAPSED TIME:  69ms

               CONVERGENCE CHECKS FOR EQUILIBRIUM ITERATION     1


 AVERAGE FORCE                       2.00       TIME AVG. FORCE        1.16    
 LARGEST SCALED RESIDUAL FORCE      2.206E-09   AT NODE        927   DOF  2
   INSTANCE: ELASTIC_PLATE_1                                                                 
  CORRESPONDING RESIDUAL FORCE      2.206E-09
 LARGEST INCREMENT OF DISP.         1.000E-06   AT NODE       2083   DOF  2
   INSTANCE: ELASTIC_PLATE_1                                                                 
 LARGEST CORRECTION TO DISP.        8.994E-12   AT NODE       1770   DOF  1
   INSTANCE: ELASTIC_PLATE_1                                                                 
          THE FORCE     EQUILIBRIUM RESPONSE WAS LINEAR IN THIS INCREMENT

 AVERAGE HEAT FLUX                  3.649E-03   TIME AVG. HEAT FLUX   3.111E-03
 LARGEST RESIDUAL HEAT FLUX        -1.072E-03   AT NODE       3177   DOF 12
   INSTANCE: ELASTIC_PLATE_1                                                                 
 LARGEST INCREMENT OF TEMP.          6.32       AT NODE       2857   DOF 12
   INSTANCE: ELASTIC_PLATE_1                                                                 
 LARGEST CORRECTION TO TEMP.        -1.50       AT NODE       2861   DOF 12
   INSTANCE: ELASTIC_PLATE_1                                                                 
          HEAT FLUX EQUILIBRIUM NOT ACHIEVED WITHIN TOLERANCE.
 
	UNSYMMETRIC NEW DIRECT SPARSE SOLVER RUNNING ON
 	1 HOST x 1 MPI RANK PER HOST x 1 THREAD PER RANK
        NUMBER OF EQUATIONS:  16080
        NUMBER OF RHS:        1
        NUMBER OF FLOPS:      1.760e+09
        SOLVER ELAPSED TIME:  69ms

               CONVERGENCE CHECKS FOR EQUILIBRIUM ITERATION     2


 AVERAGE FORCE                       2.00       TIME AVG. FORCE        1.16    
 LARGEST SCALED RESIDUAL FORCE     -5.902E-13   AT NODE         55   DOF  2
   INSTANCE: ELASTIC_PLATE_1                                                                 
  CORRESPONDING RESIDUAL FORCE     -5.902E-13
 LARGEST INCREMENT OF DISP.         1.000E-06   AT NODE       2083   DOF  2
   INSTANCE: ELASTIC_PLATE_1                                                                 
 LARGEST CORRECTION TO DISP.        7.714E-16   AT NODE        875   DOF  2
   INSTANCE: ELASTIC_PLATE_1                                                                 
          THE FORCE     EQUILIBRIUM EQUATIONS HAVE CONVERGED

 AVERAGE HEAT FLUX                  3.930E-03   TIME AVG. HEAT FLUX   3.181E-03
 LARGEST RESIDUAL HEAT FLUX        -1.958E-04   AT NODE       2957   DOF 12
   INSTANCE: ELASTIC_PLATE_1                                                                 
 LARGEST INCREMENT OF TEMP.          6.08       AT NODE       2857   DOF 12
   INSTANCE: ELASTIC_PLATE_1                                                                 
 LARGEST CORRECTION TO TEMP.       -0.239       AT NODE       2861   DOF 12
   INSTANCE: ELASTIC_PLATE_1                                                                 
          HEAT FLUX EQUILIBRIUM NOT ACHIEVED WITHIN TOLERANCE.
 
	UNSYMMETRIC NEW DIRECT SPARSE SOLVER RUNNING ON
 	1 HOST x 1 MPI RANK PER HOST x 1 THREAD PER RANK
        NUMBER OF EQUATIONS:  16080
        NUMBER OF RHS:        1
        NUMBER OF FLOPS:      1.760e+09
        SOLVER ELAPSED TIME:  67ms

               CONVERGENCE CHECKS FOR EQUILIBRIUM ITERATION     3


 AVERAGE FORCE                       2.00       TIME AVG. FORCE        1.16    
 LARGEST SCALED RESIDUAL FORCE     -1.181E-13   AT NODE       3137   DOF  2
   INSTANCE: ELASTIC_PLATE_1                                                                 
  CORRESPONDING RESIDUAL FORCE     -1.181E-13
 LARGEST INCREMENT OF DISP.         1.000E-06   AT NODE       2083   DOF  2
   INSTANCE: ELASTIC_PLATE_1                                                                 
 LARGEST CORRECTION TO DISP.       -1.162E-19   AT NODE         56   DOF  2
   INSTANCE: ELASTIC_PLATE_1                                                                 
          THE FORCE     EQUILIBRIUM EQUATIONS HAVE CONVERGED

 AVERAGE HEAT FLUX                  3.930E-03   TIME AVG. HEAT FLUX   3.181E-03
 LARGEST RESIDUAL HEAT FLUX        -3.814E-05   AT NODE       2937   DOF 12
   INSTANCE: ELASTIC_PLATE_1                                                                 
 LARGEST INCREMENT OF TEMP.          6.04       AT NODE       2857   DOF 12
   INSTANCE: ELASTIC_PLATE_1                                                                 
 LARGEST CORRECTION TO TEMP.       -4.250E-02   AT NODE       2218   DOF 12
   INSTANCE: ELASTIC_PLATE_1                                                                 
          HEAT FLUX EQUILIBRIUM NOT ACHIEVED WITHIN TOLERANCE.
 
	UNSYMMETRIC NEW DIRECT SPARSE SOLVER RUNNING ON
 	1 HOST x 1 MPI RANK PER HOST x 1 THREAD PER RANK
        NUMBER OF EQUATIONS:  16080
        NUMBER OF RHS:        1
        NUMBER OF FLOPS:      1.760e+09
        SOLVER ELAPSED TIME:  69ms

               CONVERGENCE CHECKS FOR EQUILIBRIUM ITERATION     4


 AVERAGE FORCE                       2.00       TIME AVG. FORCE        1.16    
 LARGEST SCALED RESIDUAL FORCE      1.013E-13   AT NODE       2598   DOF  2
   INSTANCE: ELASTIC_PLATE_1                                                                 
  CORRESPONDING RESIDUAL FORCE      1.013E-13
 LARGEST INCREMENT OF DISP.         1.000E-06   AT NODE       2083   DOF  2
   INSTANCE: ELASTIC_PLATE_1                                                                 
 LARGEST CORRECTION TO DISP.       -5.104E-22   AT NODE       2222   DOF  2
   INSTANCE: ELASTIC_PLATE_1                                                                 
          THE FORCE     EQUILIBRIUM EQUATIONS HAVE CONVERGED

 AVERAGE HEAT FLUX                  3.930E-03   TIME AVG. HEAT FLUX   3.181E-03
 LARGEST RESIDUAL HEAT FLUX        -7.761E-06   AT NODE       2897   DOF 12
   INSTANCE: ELASTIC_PLATE_1                                                                 
 LARGEST INCREMENT OF TEMP.          6.03       AT NODE       2857   DOF 12
   INSTANCE: ELASTIC_PLATE_1                                                                 
 LARGEST CORRECTION TO TEMP.       -8.124E-03   AT NODE       2218   DOF 12
   INSTANCE: ELASTIC_PLATE_1                                                                 
          THE HEAT FLUX EQUILIBRIUM EQUATIONS HAVE CONVERGED

 MAXIMUM NON-PRESCRIBED INCREMENT IN TEMPERATURE IS    6.03    

 ITERATION SUMMARY FOR THE INCREMENT:   4 TOTAL ITERATIONS, OF WHICH
   0 ARE SEVERE DISCONTINUITY ITERATIONS AND  4 ARE EQUILIBRIUM ITERATIONS.

 TIME INCREMENT COMPLETED   1.00    ,  FRACTION OF STEP COMPLETED  5.000E-02
 STEP TIME COMPLETED        5.00    ,  TOTAL TIME COMPLETED         5.00    


  INCREMENT     6 STARTS. ATTEMPT NUMBER  1, TIME INCREMENT   1.00    
 
	UNSYMMETRIC NEW DIRECT SPARSE SOLVER RUNNING ON
 	1 HOST x 1 MPI RANK PER HOST x 1 THREAD PER RANK
        NUMBER OF EQUATIONS:  16080
        NUMBER OF RHS:        1
        NUMBER OF FLOPS:      1.760e+09
        SOLVER ELAPSED TIME:  82ms

               CONVERGENCE CHECKS FOR EQUILIBRIUM ITERATION     1


 AVERAGE FORCE                       2.40       TIME AVG. FORCE        1.37    
 LARGEST SCALED RESIDUAL FORCE      2.789E-09   AT NODE         56   DOF  2
   INSTANCE: ELASTIC_PLATE_1                                                                 
  CORRESPONDING RESIDUAL FORCE      2.789E-09
 LARGEST INCREMENT OF DISP.         1.000E-06   AT NODE       2083   DOF  2
   INSTANCE: ELASTIC_PLATE_1                                                                 
 LARGEST CORRECTION TO DISP.        8.994E-12   AT NODE       1764   DOF  1
   INSTANCE: ELASTIC_PLATE_1                                                                 
          THE FORCE     EQUILIBRIUM RESPONSE WAS LINEAR IN THIS INCREMENT

 AVERAGE HEAT FLUX                  3.406E-03   TIME AVG. HEAT FLUX   3.226E-03
 LARGEST RESIDUAL HEAT FLUX        -7.042E-04   AT NODE       3017   DOF 12
   INSTANCE: ELASTIC_PLATE_1                                                                 
 LARGEST INCREMENT OF TEMP.          4.97       AT NODE       2857   DOF 12
   INSTANCE: ELASTIC_PLATE_1                                                                 
 LARGEST CORRECTION TO TEMP.        -1.06       AT NODE       2861   DOF 12
   INSTANCE: ELASTIC_PLATE_1                                                                 
          HEAT FLUX EQUILIBRIUM NOT ACHIEVED WITHIN TOLERANCE.
 
	UNSYMMETRIC NEW DIRECT SPARSE SOLVER RUNNING ON
 	1 HOST x 1 MPI RANK PER HOST x 1 THREAD PER RANK
        NUMBER OF EQUATIONS:  16080
        NUMBER OF RHS:        1
        NUMBER OF FLOPS:      1.760e+09
        SOLVER ELAPSED TIME:  69ms

               CONVERGENCE CHECKS FOR EQUILIBRIUM ITERATION     2


 AVERAGE FORCE                       2.40       TIME AVG. FORCE        1.37    
 LARGEST SCALED RESIDUAL FORCE     -8.589E-13   AT NODE        926   DOF  2
   INSTANCE: ELASTIC_PLATE_1                                                                 
  CORRESPONDING RESIDUAL FORCE     -8.589E-13
 LARGEST INCREMENT OF DISP.         1.000E-06   AT NODE       2083   DOF  2
   INSTANCE: ELASTIC_PLATE_1                                                                 
 LARGEST CORRECTION TO DISP.        9.380E-16   AT NODE        875   DOF  2
   INSTANCE: ELASTIC_PLATE_1                                                                 
          THE FORCE     EQUILIBRIUM EQUATIONS HAVE CONVERGED

 AVERAGE HEAT FLUX                  3.406E-03   TIME AVG. HEAT FLUX   3.226E-03
 LARGEST RESIDUAL HEAT FLUX        -1.235E-04   AT NODE       2937   DOF 12
   INSTANCE: ELASTIC_PLATE_1                                                                 
 LARGEST INCREMENT OF TEMP.          4.81       AT NODE       2857   DOF 12
   INSTANCE: ELASTIC_PLATE_1                                                                 
 LARGEST CORRECTION TO TEMP.       -0.159       AT NODE       2861   DOF 12
   INSTANCE: ELASTIC_PLATE_1                                                                 
          HEAT FLUX EQUILIBRIUM NOT ACHIEVED WITHIN TOLERANCE.
 
	UNSYMMETRIC NEW DIRECT SPARSE SOLVER RUNNING ON
 	1 HOST x 1 MPI RANK PER HOST x 1 THREAD PER RANK
        NUMBER OF EQUATIONS:  16080
        NUMBER OF RHS:        1
        NUMBER OF FLOPS:      1.760e+09
        SOLVER ELAPSED TIME:  75ms

               CONVERGENCE CHECKS FOR EQUILIBRIUM ITERATION     3


 AVERAGE FORCE                       2.40       TIME AVG. FORCE        1.37    
 LARGEST SCALED RESIDUAL FORCE      8.438E-14   AT NODE       2338   DOF  2
   INSTANCE: ELASTIC_PLATE_1                                                                 
  CORRESPONDING RESIDUAL FORCE      8.438E-14
 LARGEST INCREMENT OF DISP.         1.000E-06   AT NODE       2083   DOF  2
   INSTANCE: ELASTIC_PLATE_1                                                                 
 LARGEST CORRECTION TO DISP.       -1.665E-19   AT NODE        927   DOF  2
   INSTANCE: ELASTIC_PLATE_1                                                                 
          THE FORCE     EQUILIBRIUM EQUATIONS HAVE CONVERGED

 AVERAGE HEAT FLUX                  3.406E-03   TIME AVG. HEAT FLUX   3.226E-03
 LARGEST RESIDUAL HEAT FLUX        -2.329E-05   AT NODE       2897   DOF 12
   INSTANCE: ELASTIC_PLATE_1                                                                 
 LARGEST INCREMENT OF TEMP.          4.78       AT NODE       2857   DOF 12
   INSTANCE: ELASTIC_PLATE_1                                                                 
 LARGEST CORRECTION TO TEMP.       -2.714E-02   AT NODE       2218   DOF 12
   INSTANCE: ELASTIC_PLATE_1                                                                 
          HEAT FLUX EQUILIBRIUM NOT ACHIEVED WITHIN TOLERANCE.
 
	UNSYMMETRIC NEW DIRECT SPARSE SOLVER RUNNING ON
 	1 HOST x 1 MPI RANK PER HOST x 1 THREAD PER RANK
        NUMBER OF EQUATIONS:  16080
        NUMBER OF RHS:        1
        NUMBER OF FLOPS:      1.760e+09
        SOLVER ELAPSED TIME:  66ms

               CONVERGENCE CHECKS FOR EQUILIBRIUM ITERATION     4


 AVERAGE FORCE                       2.40       TIME AVG. FORCE        1.37    
 LARGEST SCALED RESIDUAL FORCE     -6.839E-14   AT NODE       2457   DOF  2
   INSTANCE: ELASTIC_PLATE_1                                                                 
  CORRESPONDING RESIDUAL FORCE     -6.839E-14
 LARGEST INCREMENT OF DISP.         1.000E-06   AT NODE       2083   DOF  2
   INSTANCE: ELASTIC_PLATE_1                                                                 
 LARGEST CORRECTION TO DISP.        4.931E-22   AT NODE       2896   DOF  2
   INSTANCE: ELASTIC_PLATE_1                                                                 
          THE FORCE     EQUILIBRIUM EQUATIONS HAVE CONVERGED

 AVERAGE HEAT FLUX                  3.406E-03   TIME AVG. HEAT FLUX   3.226E-03
 LARGEST RESIDUAL HEAT FLUX        -4.622E-06   AT NODE       2897   DOF 12
   INSTANCE: ELASTIC_PLATE_1                                                                 
 LARGEST INCREMENT OF TEMP.          4.78       AT NODE       2857   DOF 12
   INSTANCE: ELASTIC_PLATE_1                                                                 
 LARGEST CORRECTION TO TEMP.       -5.017E-03   AT NODE       2133   DOF 12
   INSTANCE: ELASTIC_PLATE_1                                                                 
          THE HEAT FLUX EQUILIBRIUM EQUATIONS HAVE CONVERGED

 MAXIMUM NON-PRESCRIBED INCREMENT IN TEMPERATURE IS    4.78    

 ITERATION SUMMARY FOR THE INCREMENT:   4 TOTAL ITERATIONS, OF WHICH
   0 ARE SEVERE DISCONTINUITY ITERATIONS AND  4 ARE EQUILIBRIUM ITERATIONS.

 TIME INCREMENT COMPLETED   1.00    ,  FRACTION OF STEP COMPLETED  6.000E-02
 STEP TIME COMPLETED        6.00    ,  TOTAL TIME COMPLETED         6.00    


  INCREMENT     7 STARTS. ATTEMPT NUMBER  1, TIME INCREMENT   1.00    
 
	UNSYMMETRIC NEW DIRECT SPARSE SOLVER RUNNING ON
 	1 HOST x 1 MPI RANK PER HOST x 1 THREAD PER RANK
        NUMBER OF EQUATIONS:  16080
        NUMBER OF RHS:        1
        NUMBER OF FLOPS:      1.760e+09
        SOLVER ELAPSED TIME:  71ms

               CONVERGENCE CHECKS FOR EQUILIBRIUM ITERATION     1


 AVERAGE FORCE                       2.80       TIME AVG. FORCE        1.57    
 LARGEST SCALED RESIDUAL FORCE      3.372E-09   AT NODE        927   DOF  2
   INSTANCE: ELASTIC_PLATE_1                                                                 
  CORRESPONDING RESIDUAL FORCE      3.372E-09
 LARGEST INCREMENT OF DISP.         1.000E-06   AT NODE       2083   DOF  2
   INSTANCE: ELASTIC_PLATE_1                                                                 
 LARGEST CORRECTION TO DISP.        8.994E-12   AT NODE       1764   DOF  1
[...]
 LARGEST CORRECTION TO DISP.        8.966E-12   AT NODE       1764   DOF  1
   INSTANCE: ELASTIC_PLATE_1                                                                 
          THE FORCE     EQUILIBRIUM RESPONSE WAS LINEAR IN THIS INCREMENT

 AVERAGE HEAT FLUX                  9.300E-04   TIME AVG. HEAT FLUX   1.609E-03
 LARGEST RESIDUAL HEAT FLUX        -1.673E-07   AT NODE       3059   DOF 12
   INSTANCE: ELASTIC_PLATE_1                                                                 
 LARGEST INCREMENT OF TEMP.         0.265       AT NODE       2853   DOF 12
   INSTANCE: ELASTIC_PLATE_1                                                                 
 LARGEST CORRECTION TO TEMP.       -3.375E-03   AT NODE       2854   DOF 12
   INSTANCE: ELASTIC_PLATE_1                                                                 
 ESTIMATE OF TEMP.    CORRECTION   -5.024E-05
 HEAT FLUX EQUILIB. ACCEPTED BASED ON SMALL RESIDUAL AND ESTIMATED CORRECTION

 MAXIMUM NON-PRESCRIBED INCREMENT IN TEMPERATURE IS   0.265    

 ITERATION SUMMARY FOR THE INCREMENT:   1 TOTAL ITERATIONS, OF WHICH
   0 ARE SEVERE DISCONTINUITY ITERATIONS AND  1 ARE EQUILIBRIUM ITERATIONS.

 TIME INCREMENT COMPLETED   1.00    ,  FRACTION OF STEP COMPLETED  0.920    
 STEP TIME COMPLETED        92.0    ,  TOTAL TIME COMPLETED         92.0    


  INCREMENT    93 STARTS. ATTEMPT NUMBER  1, TIME INCREMENT   1.00    
 
	UNSYMMETRIC NEW DIRECT SPARSE SOLVER RUNNING ON
 	1 HOST x 1 MPI RANK PER HOST x 1 THREAD PER RANK
        NUMBER OF EQUATIONS:  16080
        NUMBER OF RHS:        1
        NUMBER OF FLOPS:      1.760e+09
        SOLVER ELAPSED TIME:  83ms

               CONVERGENCE CHECKS FOR EQUILIBRIUM ITERATION     1


 AVERAGE FORCE                       37.2       TIME AVG. FORCE        18.8    
 LARGEST SCALED RESIDUAL FORCE      5.268E-08   AT NODE        928   DOF  2
   INSTANCE: ELASTIC_PLATE_1                                                                 
  CORRESPONDING RESIDUAL FORCE      5.268E-08
 LARGEST INCREMENT OF DISP.         1.000E-06   AT NODE       2083   DOF  2
   INSTANCE: ELASTIC_PLATE_1                                                                 
 LARGEST CORRECTION TO DISP.        8.965E-12   AT NODE       1770   DOF  1
   INSTANCE: ELASTIC_PLATE_1                                                                 
          THE FORCE     EQUILIBRIUM RESPONSE WAS LINEAR IN THIS INCREMENT

 AVERAGE HEAT FLUX                  9.251E-04   TIME AVG. HEAT FLUX   1.602E-03
 LARGEST RESIDUAL HEAT FLUX        -1.617E-07   AT NODE       2899   DOF 12
   INSTANCE: ELASTIC_PLATE_1                                                                 
 LARGEST INCREMENT OF TEMP.         0.262       AT NODE       2865   DOF 12
   INSTANCE: ELASTIC_PLATE_1                                                                 
 LARGEST CORRECTION TO TEMP.       -3.302E-03   AT NODE       2854   DOF 12
   INSTANCE: ELASTIC_PLATE_1                                                                 
 ESTIMATE OF TEMP.    CORRECTION   -4.856E-05
 HEAT FLUX EQUILIB. ACCEPTED BASED ON SMALL RESIDUAL AND ESTIMATED CORRECTION

 MAXIMUM NON-PRESCRIBED INCREMENT IN TEMPERATURE IS   0.262    

 ITERATION SUMMARY FOR THE INCREMENT:   1 TOTAL ITERATIONS, OF WHICH
   0 ARE SEVERE DISCONTINUITY ITERATIONS AND  1 ARE EQUILIBRIUM ITERATIONS.

 TIME INCREMENT COMPLETED   1.00    ,  FRACTION OF STEP COMPLETED  0.930    
 STEP TIME COMPLETED        93.0    ,  TOTAL TIME COMPLETED         93.0    


  INCREMENT    94 STARTS. ATTEMPT NUMBER  1, TIME INCREMENT   1.00    
 
	UNSYMMETRIC NEW DIRECT SPARSE SOLVER RUNNING ON
 	1 HOST x 1 MPI RANK PER HOST x 1 THREAD PER RANK
        NUMBER OF EQUATIONS:  16080
        NUMBER OF RHS:        1
        NUMBER OF FLOPS:      1.760e+09
        SOLVER ELAPSED TIME:  71ms

               CONVERGENCE CHECKS FOR EQUILIBRIUM ITERATION     1


 AVERAGE FORCE                       37.6       TIME AVG. FORCE        19.0    
 LARGEST SCALED RESIDUAL FORCE      5.324E-08   AT NODE        928   DOF  2
   INSTANCE: ELASTIC_PLATE_1                                                                 
  CORRESPONDING RESIDUAL FORCE      5.324E-08
 LARGEST INCREMENT OF DISP.         1.000E-06   AT NODE       2083   DOF  2
   INSTANCE: ELASTIC_PLATE_1                                                                 
 LARGEST CORRECTION TO DISP.        8.965E-12   AT NODE       1764   DOF  1
   INSTANCE: ELASTIC_PLATE_1                                                                 
          THE FORCE     EQUILIBRIUM RESPONSE WAS LINEAR IN THIS INCREMENT

 AVERAGE HEAT FLUX                  9.174E-04   TIME AVG. HEAT FLUX   1.595E-03
 LARGEST RESIDUAL HEAT FLUX        -1.563E-07   AT NODE       2899   DOF 12
   INSTANCE: ELASTIC_PLATE_1                                                                 
 LARGEST INCREMENT OF TEMP.         0.259       AT NODE       2853   DOF 12
   INSTANCE: ELASTIC_PLATE_1                                                                 
 LARGEST CORRECTION TO TEMP.       -3.231E-03   AT NODE       2864   DOF 12
   INSTANCE: ELASTIC_PLATE_1                                                                 
 ESTIMATE OF TEMP.    CORRECTION   -4.696E-05
 HEAT FLUX EQUILIB. ACCEPTED BASED ON SMALL RESIDUAL AND ESTIMATED CORRECTION

 MAXIMUM NON-PRESCRIBED INCREMENT IN TEMPERATURE IS   0.259    

 ITERATION SUMMARY FOR THE INCREMENT:   1 TOTAL ITERATIONS, OF WHICH
   0 ARE SEVERE DISCONTINUITY ITERATIONS AND  1 ARE EQUILIBRIUM ITERATIONS.

 TIME INCREMENT COMPLETED   1.00    ,  FRACTION OF STEP COMPLETED  0.940    
 STEP TIME COMPLETED        94.0    ,  TOTAL TIME COMPLETED         94.0    


  INCREMENT    95 STARTS. ATTEMPT NUMBER  1, TIME INCREMENT   1.00    
 
	UNSYMMETRIC NEW DIRECT SPARSE SOLVER RUNNING ON
 	1 HOST x 1 MPI RANK PER HOST x 1 THREAD PER RANK
        NUMBER OF EQUATIONS:  16080
        NUMBER OF RHS:        1
        NUMBER OF FLOPS:      1.760e+09
        SOLVER ELAPSED TIME:  71ms

               CONVERGENCE CHECKS FOR EQUILIBRIUM ITERATION     1


 AVERAGE FORCE                       38.0       TIME AVG. FORCE        19.2    
 LARGEST SCALED RESIDUAL FORCE      5.381E-08   AT NODE         57   DOF  2
   INSTANCE: ELASTIC_PLATE_1                                                                 
  CORRESPONDING RESIDUAL FORCE      5.381E-08
 LARGEST INCREMENT OF DISP.         1.000E-06   AT NODE       2083   DOF  2
   INSTANCE: ELASTIC_PLATE_1                                                                 
 LARGEST CORRECTION TO DISP.        8.965E-12   AT NODE       1764   DOF  1
   INSTANCE: ELASTIC_PLATE_1                                                                 
          THE FORCE     EQUILIBRIUM RESPONSE WAS LINEAR IN THIS INCREMENT

 AVERAGE HEAT FLUX                  9.117E-04   TIME AVG. HEAT FLUX   1.587E-03
 LARGEST RESIDUAL HEAT FLUX        -1.512E-07   AT NODE       3059   DOF 12
   INSTANCE: ELASTIC_PLATE_1                                                                 
 LARGEST INCREMENT OF TEMP.         0.256       AT NODE       2865   DOF 12
   INSTANCE: ELASTIC_PLATE_1                                                                 
 LARGEST CORRECTION TO TEMP.       -3.162E-03   AT NODE       2854   DOF 12
   INSTANCE: ELASTIC_PLATE_1                                                                 
 ESTIMATE OF TEMP.    CORRECTION   -4.543E-05
 HEAT FLUX EQUILIB. ACCEPTED BASED ON SMALL RESIDUAL AND ESTIMATED CORRECTION

 MAXIMUM NON-PRESCRIBED INCREMENT IN TEMPERATURE IS   0.256    

 ITERATION SUMMARY FOR THE INCREMENT:   1 TOTAL ITERATIONS, OF WHICH
   0 ARE SEVERE DISCONTINUITY ITERATIONS AND  1 ARE EQUILIBRIUM ITERATIONS.

 TIME INCREMENT COMPLETED   1.00    ,  FRACTION OF STEP COMPLETED  0.950    
 STEP TIME COMPLETED        95.0    ,  TOTAL TIME COMPLETED         95.0    


  INCREMENT    96 STARTS. ATTEMPT NUMBER  1, TIME INCREMENT   1.00    
 
	UNSYMMETRIC NEW DIRECT SPARSE SOLVER RUNNING ON
 	1 HOST x 1 MPI RANK PER HOST x 1 THREAD PER RANK
        NUMBER OF EQUATIONS:  16080
        NUMBER OF RHS:        1
        NUMBER OF FLOPS:      1.760e+09
        SOLVER ELAPSED TIME:  73ms

               CONVERGENCE CHECKS FOR EQUILIBRIUM ITERATION     1


 AVERAGE FORCE                       38.4       TIME AVG. FORCE        19.4    
 LARGEST SCALED RESIDUAL FORCE      5.437E-08   AT NODE        928   DOF  2
   INSTANCE: ELASTIC_PLATE_1                                                                 
  CORRESPONDING RESIDUAL FORCE      5.437E-08
 LARGEST INCREMENT OF DISP.         1.000E-06   AT NODE       2083   DOF  2
   INSTANCE: ELASTIC_PLATE_1                                                                 
 LARGEST CORRECTION TO DISP.        8.964E-12   AT NODE       1770   DOF  1
   INSTANCE: ELASTIC_PLATE_1                                                                 
          THE FORCE     EQUILIBRIUM RESPONSE WAS LINEAR IN THIS INCREMENT

 AVERAGE HEAT FLUX                  8.823E-04   TIME AVG. HEAT FLUX   1.580E-03
 LARGEST RESIDUAL HEAT FLUX        -1.463E-07   AT NODE       2899   DOF 12
   INSTANCE: ELASTIC_PLATE_1                                                                 
 LARGEST INCREMENT OF TEMP.         0.253       AT NODE       2865   DOF 12
   INSTANCE: ELASTIC_PLATE_1                                                                 
 LARGEST CORRECTION TO TEMP.       -3.095E-03   AT NODE       2854   DOF 12
   INSTANCE: ELASTIC_PLATE_1                                                                 
 ESTIMATE OF TEMP.    CORRECTION   -4.396E-05
 HEAT FLUX EQUILIB. ACCEPTED BASED ON SMALL RESIDUAL AND ESTIMATED CORRECTION

 MAXIMUM NON-PRESCRIBED INCREMENT IN TEMPERATURE IS   0.253    

 ITERATION SUMMARY FOR THE INCREMENT:   1 TOTAL ITERATIONS, OF WHICH
   0 ARE SEVERE DISCONTINUITY ITERATIONS AND  1 ARE EQUILIBRIUM ITERATIONS.

 TIME INCREMENT COMPLETED   1.00    ,  FRACTION OF STEP COMPLETED  0.960    
 STEP TIME COMPLETED        96.0    ,  TOTAL TIME COMPLETED         96.0    


  INCREMENT    97 STARTS. ATTEMPT NUMBER  1, TIME INCREMENT   1.00    
 
	UNSYMMETRIC NEW DIRECT SPARSE SOLVER RUNNING ON
 	1 HOST x 1 MPI RANK PER HOST x 1 THREAD PER RANK
        NUMBER OF EQUATIONS:  16080
        NUMBER OF RHS:        1
        NUMBER OF FLOPS:      1.760e+09
        SOLVER ELAPSED TIME:  74ms

               CONVERGENCE CHECKS FOR EQUILIBRIUM ITERATION     1


 AVERAGE FORCE                       38.8       TIME AVG. FORCE        19.6    
 LARGEST SCALED RESIDUAL FORCE      5.493E-08   AT NODE         57   DOF  2
   INSTANCE: ELASTIC_PLATE_1                                                                 
  CORRESPONDING RESIDUAL FORCE      5.493E-08
 LARGEST INCREMENT OF DISP.         1.000E-06   AT NODE       2083   DOF  2
   INSTANCE: ELASTIC_PLATE_1                                                                 
 LARGEST CORRECTION TO DISP.        8.964E-12   AT NODE       1764   DOF  1
   INSTANCE: ELASTIC_PLATE_1                                                                 
          THE FORCE     EQUILIBRIUM RESPONSE WAS LINEAR IN THIS INCREMENT

 AVERAGE HEAT FLUX                  8.773E-04   TIME AVG. HEAT FLUX   1.573E-03
 LARGEST RESIDUAL HEAT FLUX        -1.416E-07   AT NODE       2899   DOF 12
   INSTANCE: ELASTIC_PLATE_1                                                                 
 LARGEST INCREMENT OF TEMP.         0.250       AT NODE       2852   DOF 12
   INSTANCE: ELASTIC_PLATE_1                                                                 
 LARGEST CORRECTION TO TEMP.       -3.030E-03   AT NODE       2864   DOF 12
   INSTANCE: ELASTIC_PLATE_1                                                                 
 ESTIMATE OF TEMP.    CORRECTION   -4.255E-05
 HEAT FLUX EQUILIB. ACCEPTED BASED ON SMALL RESIDUAL AND ESTIMATED CORRECTION

 MAXIMUM NON-PRESCRIBED INCREMENT IN TEMPERATURE IS   0.250    

 ITERATION SUMMARY FOR THE INCREMENT:   1 TOTAL ITERATIONS, OF WHICH
   0 ARE SEVERE DISCONTINUITY ITERATIONS AND  1 ARE EQUILIBRIUM ITERATIONS.

 TIME INCREMENT COMPLETED   1.00    ,  FRACTION OF STEP COMPLETED  0.970    
 STEP TIME COMPLETED        97.0    ,  TOTAL TIME COMPLETED         97.0    


  INCREMENT    98 STARTS. ATTEMPT NUMBER  1, TIME INCREMENT   1.00    
 
	UNSYMMETRIC NEW DIRECT SPARSE SOLVER RUNNING ON
 	1 HOST x 1 MPI RANK PER HOST x 1 THREAD PER RANK
        NUMBER OF EQUATIONS:  16080
        NUMBER OF RHS:        1
        NUMBER OF FLOPS:      1.760e+09
        SOLVER ELAPSED TIME:  70ms

               CONVERGENCE CHECKS FOR EQUILIBRIUM ITERATION     1


 AVERAGE FORCE                       39.1       TIME AVG. FORCE        19.8    
 LARGEST SCALED RESIDUAL FORCE      5.549E-08   AT NODE         57   DOF  2
   INSTANCE: ELASTIC_PLATE_1                                                                 
  CORRESPONDING RESIDUAL FORCE      5.549E-08
 LARGEST INCREMENT OF DISP.         1.000E-06   AT NODE       2083   DOF  2
   INSTANCE: ELASTIC_PLATE_1                                                                 
 LARGEST CORRECTION TO DISP.        8.964E-12   AT NODE       1764   DOF  1
   INSTANCE: ELASTIC_PLATE_1                                                                 
          THE FORCE     EQUILIBRIUM RESPONSE WAS LINEAR IN THIS INCREMENT

 AVERAGE HEAT FLUX                  8.695E-04   TIME AVG. HEAT FLUX   1.565E-03
 LARGEST RESIDUAL HEAT FLUX        -1.370E-07   AT NODE       2899   DOF 12
   INSTANCE: ELASTIC_PLATE_1                                                                 
 LARGEST INCREMENT OF TEMP.         0.248       AT NODE       2894   DOF 12
   INSTANCE: ELASTIC_PLATE_1                                                                 
 LARGEST CORRECTION TO TEMP.       -2.967E-03   AT NODE       2854   DOF 12
   INSTANCE: ELASTIC_PLATE_1                                                                 
 ESTIMATE OF TEMP.    CORRECTION   -4.119E-05
 HEAT FLUX EQUILIB. ACCEPTED BASED ON SMALL RESIDUAL AND ESTIMATED CORRECTION

 MAXIMUM NON-PRESCRIBED INCREMENT IN TEMPERATURE IS   0.248    

 ITERATION SUMMARY FOR THE INCREMENT:   1 TOTAL ITERATIONS, OF WHICH
   0 ARE SEVERE DISCONTINUITY ITERATIONS AND  1 ARE EQUILIBRIUM ITERATIONS.

 TIME INCREMENT COMPLETED   1.00    ,  FRACTION OF STEP COMPLETED  0.980    
 STEP TIME COMPLETED        98.0    ,  TOTAL TIME COMPLETED         98.0    


  INCREMENT    99 STARTS. ATTEMPT NUMBER  1, TIME INCREMENT   1.00    
 
	UNSYMMETRIC NEW DIRECT SPARSE SOLVER RUNNING ON
 	1 HOST x 1 MPI RANK PER HOST x 1 THREAD PER RANK
        NUMBER OF EQUATIONS:  16080
        NUMBER OF RHS:        1
        NUMBER OF FLOPS:      1.760e+09
        SOLVER ELAPSED TIME:  75ms

               CONVERGENCE CHECKS FOR EQUILIBRIUM ITERATION     1


 AVERAGE FORCE                       39.5       TIME AVG. FORCE        20.0    
 LARGEST SCALED RESIDUAL FORCE      5.605E-08   AT NODE         57   DOF  2
   INSTANCE: ELASTIC_PLATE_1                                                                 
  CORRESPONDING RESIDUAL FORCE      5.605E-08
 LARGEST INCREMENT OF DISP.         1.000E-06   AT NODE       2083   DOF  2
   INSTANCE: ELASTIC_PLATE_1                                                                 
 LARGEST CORRECTION TO DISP.        8.963E-12   AT NODE       1770   DOF  1
   INSTANCE: ELASTIC_PLATE_1                                                                 
          THE FORCE     EQUILIBRIUM RESPONSE WAS LINEAR IN THIS INCREMENT

 AVERAGE HEAT FLUX                  8.621E-04   TIME AVG. HEAT FLUX   1.558E-03
 LARGEST RESIDUAL HEAT FLUX        -1.327E-07   AT NODE       2899   DOF 12
   INSTANCE: ELASTIC_PLATE_1                                                                 
 LARGEST INCREMENT OF TEMP.         0.245       AT NODE       2894   DOF 12
   INSTANCE: ELASTIC_PLATE_1                                                                 
 LARGEST CORRECTION TO TEMP.       -2.905E-03   AT NODE       2854   DOF 12
   INSTANCE: ELASTIC_PLATE_1                                                                 
 ESTIMATE OF TEMP.    CORRECTION   -3.989E-05
 HEAT FLUX EQUILIB. ACCEPTED BASED ON SMALL RESIDUAL AND ESTIMATED CORRECTION

 MAXIMUM NON-PRESCRIBED INCREMENT IN TEMPERATURE IS   0.245    

 ITERATION SUMMARY FOR THE INCREMENT:   1 TOTAL ITERATIONS, OF WHICH
   0 ARE SEVERE DISCONTINUITY ITERATIONS AND  1 ARE EQUILIBRIUM ITERATIONS.

 TIME INCREMENT COMPLETED   1.00    ,  FRACTION OF STEP COMPLETED  0.990    
 STEP TIME COMPLETED        99.0    ,  TOTAL TIME COMPLETED         99.0    


  INCREMENT   100 STARTS. ATTEMPT NUMBER  1, TIME INCREMENT   1.00    
 
	UNSYMMETRIC NEW DIRECT SPARSE SOLVER RUNNING ON
 	1 HOST x 1 MPI RANK PER HOST x 1 THREAD PER RANK
        NUMBER OF EQUATIONS:  16080
        NUMBER OF RHS:        1
        NUMBER OF FLOPS:      1.760e+09
        SOLVER ELAPSED TIME:  71ms

               CONVERGENCE CHECKS FOR EQUILIBRIUM ITERATION     1


 AVERAGE FORCE                       39.9       TIME AVG. FORCE        20.2    
 LARGEST SCALED RESIDUAL FORCE      5.662E-08   AT NODE         57   DOF  2
   INSTANCE: ELASTIC_PLATE_1                                                                 
  CORRESPONDING RESIDUAL FORCE      5.662E-08
 LARGEST INCREMENT OF DISP.         1.000E-06   AT NODE       2083   DOF  2
   INSTANCE: ELASTIC_PLATE_1                                                                 
 LARGEST CORRECTION TO DISP.        8.963E-12   AT NODE       1764   DOF  1
   INSTANCE: ELASTIC_PLATE_1                                                                 
          THE FORCE     EQUILIBRIUM RESPONSE WAS LINEAR IN THIS INCREMENT

 AVERAGE HEAT FLUX                  8.576E-04   TIME AVG. HEAT FLUX   1.551E-03
 LARGEST RESIDUAL HEAT FLUX        -1.285E-07   AT NODE       3059   DOF 12
   INSTANCE: ELASTIC_PLATE_1                                                                 
 LARGEST INCREMENT OF TEMP.         0.243       AT NODE       2894   DOF 12
   INSTANCE: ELASTIC_PLATE_1                                                                 
 LARGEST CORRECTION TO TEMP.       -2.846E-03   AT NODE       2864   DOF 12
   INSTANCE: ELASTIC_PLATE_1                                                                 
 ESTIMATE OF TEMP.    CORRECTION   -3.864E-05
 HEAT FLUX EQUILIB. ACCEPTED BASED ON SMALL RESIDUAL AND ESTIMATED CORRECTION

 MAXIMUM NON-PRESCRIBED INCREMENT IN TEMPERATURE IS   0.243    

 ITERATION SUMMARY FOR THE INCREMENT:   1 TOTAL ITERATIONS, OF WHICH
   0 ARE SEVERE DISCONTINUITY ITERATIONS AND  1 ARE EQUILIBRIUM ITERATIONS.

 TIME INCREMENT COMPLETED   1.00    ,  FRACTION OF STEP COMPLETED   1.00    
 STEP TIME COMPLETED        100.    ,  TOTAL TIME COMPLETED         100.    


          THE ANALYSIS HAS BEEN COMPLETED



     ANALYSIS SUMMARY:
     TOTAL OF        100  INCREMENTS
                       0  CUTBACKS IN AUTOMATIC INCREMENTATION
                     141  ITERATIONS INCLUDING CONTACT ITERATIONS IF PRESENT
                     141  PASSES THROUGH THE EQUATION SOLVER OF WHICH 
                     141  INVOLVE MATRIX DECOMPOSITION, INCLUDING
                       0  DECOMPOSITION(S) OF THE MASS MATRIX
                       1  REORDERING OF EQUATIONS TO MINIMIZE WAVEFRONT
                       0  ADDITIONAL RESIDUAL EVALUATIONS FOR LINE SEARCHES
                       0  ADDITIONAL OPERATOR EVALUATIONS FOR LINE SEARCHES
                       8  WARNING MESSAGES DURING USER INPUT PROCESSING
                    8208  WARNING MESSAGES DURING ANALYSIS
                    8206  ANALYSIS WARNINGS ARE NUMERICAL PROBLEM MESSAGES
                       0  ANALYSIS WARNINGS ARE NEGATIVE EIGENVALUE MESSAGES
                       0  ERROR MESSAGES



     JOB TIME SUMMARY
       USER TIME (SEC)      =      47.    
       SYSTEM TIME (SEC)    =      4.8    
       TOTAL CPU TIME (SEC) =      52.    
       WALLCLOCK TIME (SEC) =           65
       MEMORY PEAK (GB)     =            0
