1

   Abaqus 2023.HF4                                  Date 06-Apr-2025   Time 19:23:00
   For use by AALTO UNIVERSITY under license from Dassault Systemes or its subsidiary.

                                                                                 
                                                                                 
 STEP    1     INCREMENT     1     STEP TIME    0.00    


                        S T E P       1     C O U P L E D - T E M P E R A T U R E - D I S P L A C E M E N T   A N A L Y S I S


                                                                                          

     AUTOMATIC TIME CONTROL WITH -
          A SUGGESTED INITIAL TIME INCREMENT OF                 1.00    
          AND A TOTAL TIME PERIOD OF                            100.    
          THE MINIMUM TIME INCREMENT ALLOWED IS                1.000E-04
          THE MAXIMUM TIME INCREMENT ALLOWED IS                 1.00    

          CREEP AND SWELLING EFFECTS ARE OMITTED IN THIS STEP

     THE SIZE OF THE TIME INCREMENT IS CONTROLLED BY -
          THE TEMPERATURE CHANGE PER INCREMENT NOT EXCEEDING           1.000E+05
          THE RATE DEPENDENCY WILL BE CONSIDERED IN THIS STEP

          CREEP AND SWELLING EFFECTS WILL BE IGNORED.

 CONVERGENCE TOLERANCE PARAMETERS FOR FORCE    
     CRITERION FOR RESIDUAL FORCE     FOR A NONLINEAR PROBLEM          5.000E-03
     CRITERION FOR DISP.    CORRECTION IN A NONLINEAR PROBLEM          1.000E-02
     INITIAL VALUE OF TIME AVERAGE FORCE                               1.000E-02
     AVERAGE FORCE     IS TIME AVERAGE FORCE    
     ALTERNATE CRIT. FOR RESIDUAL FORCE     FOR A NONLINEAR PROBLEM    2.000E-02
     CRITERION FOR ZERO FORCE     RELATIVE TO TIME AVRG. FORCE         1.000E-05
     CRITERION FOR RESIDUAL FORCE     WHEN THERE IS ZERO FLUX          1.000E-05
     CRITERION FOR DISP.    CORRECTION WHEN THERE IS ZERO FLUX         1.000E-03
     CRITERION FOR RESIDUAL FORCE     FOR A LINEAR INCREMENT           1.000E-08
     FIELD CONVERSION RATIO                                             1.00    
     CRITERION FOR ZERO FORCE     REL. TO TIME AVRG. MAX. FORCE        1.000E-05
     CRITERION FOR ZERO DISP.    RELATIVE TO CHARACTERISTIC LENGTH     1.000E-08

 CONVERGENCE TOLERANCE PARAMETERS FOR HEAT FLUX
     CRITERION FOR RESIDUAL HEAT FLUX FOR A NONLINEAR PROBLEM          5.000E-03
     CRITERION FOR TEMP.    CORRECTION IN A NONLINEAR PROBLEM          1.000E-02
     INITIAL VALUE OF TIME AVERAGE HEAT FLUX                           1.000E-02
     AVERAGE HEAT FLUX IS TIME AVERAGE HEAT FLUX
     ALTERNATE CRIT. FOR RESIDUAL HEAT FLUX FOR A NONLINEAR PROBLEM    2.000E-02
     CRITERION FOR ZERO HEAT FLUX RELATIVE TO TIME AVRG. HEAT FLUX     1.000E-05
     CRITERION FOR RESIDUAL HEAT FLUX WHEN THERE IS ZERO FLUX          1.000E-05
     CRITERION FOR TEMP.    CORRECTION WHEN THERE IS ZERO FLUX         1.000E-03
     CRITERION FOR RESIDUAL HEAT FLUX FOR A LINEAR INCREMENT           1.000E-08
     FIELD CONVERSION RATIO                                             1.00    
     CRITERION FOR ZERO HEAT FLUX REL. TO TIME AVRG. MAX. HEAT FLUX    1.000E-05

     VOLUMETRIC STRAIN COMPATIBILITY TOLERANCE FOR HYBRID SOLIDS       1.000E-05
     AXIAL STRAIN COMPATIBILITY TOLERANCE FOR HYBRID BEAMS             1.000E-05
     TRANS. SHEAR STRAIN COMPATIBILITY TOLERANCE FOR HYBRID BEAMS      1.000E-05
     SOFT CONTACT CONSTRAINT COMPATIBILITY TOLERANCE FOR P>P0          5.000E-03
     SOFT CONTACT CONSTRAINT COMPATIBILITY TOLERANCE FOR P=0.0         0.100    
     CONTACT FORCE ERROR TOLERANCE FOR CONVERT SDI=YES                 1.00    
     DISPLACEMENT COMPATIBILITY TOLERANCE FOR DCOUP ELEMENTS           1.000E-05
     ROTATION COMPATIBILITY TOLERANCE FOR DCOUP ELEMENTS               1.000E-05

 EQUILIBRIUM WILL BE CHECKED FOR SEVERE DISCONTINUITY ITERATIONS

 TIME INCREMENTATION CONTROL PARAMETERS:
     FIRST EQUILIBRIUM ITERATION FOR CONSECUTIVE DIVERGENCE CHECK              4
     EQUILIBRIUM ITERATION AT WHICH LOG. CONVERGENCE RATE CHECK BEGINS         8
     EQUILIBRIUM ITERATION AFTER WHICH ALTERNATE RESIDUAL IS USED              9
     MAXIMUM EQUILIBRIUM ITERATIONS ALLOWED                                   16
     EQUILIBRIUM ITERATION COUNT FOR CUT-BACK IN NEXT INCREMENT               10
     MAXIMUM EQUILIB. ITERS IN TWO INCREMENTS FOR TIME INCREMENT INCREASE      4
     MAXIMUM ITERATIONS FOR SEVERE DISCONTINUITIES                            50
     MAXIMUM ATTEMPTS ALLOWED IN AN INCREMENT                                  5
     MAXIMUM DISCON. ITERS IN TWO INCREMENTS FOR TIME INCREMENT INCREASE      50
     MAXIMUM CONTACT AUGMENTATIONS FOR *SURFACE BEHAVIOR,AUGMENTED LAGRANGE   50
     CONSECUTIVE INCS MEETING TIME INTEG. TOL. FOR TIME INC. INCREASE          3
     CUT-BACK FACTOR AFTER DIVERGENCE                                 0.2500    
     CUT-BACK FACTOR FOR TOO SLOW CONVERGENCE                         0.5000    
     CUT-BACK FACTOR AFTER TOO MANY EQUILIBRIUM ITERATIONS            0.7500    
     CUT-BACK FACTOR AFTER TOO MANY SEVERE DISCONTINUITY ITERATIONS   0.2500    
     CUT-BACK FACTOR AFTER PROBLEMS IN ELEMENT ASSEMBLY               0.2500    
     INCREASE FACTOR AFTER TWO INCREMENTS THAT CONVERGE QUICKLY        1.500    
     MAX. TIME INCREMENT INCREASE FACTOR ALLOWED                       1.500    
     MAX. TIME INCREMENT INCREASE FACTOR ALLOWED (DYNAMICS)            1.250    
     MAX. TIME INCREMENT INCREASE FACTOR ALLOWED (DIFFUSION)           2.000    
     MINIMUM TIME INCREMENT RATIO FOR EXTRAPOLATION TO OCCUR          0.1000    
     CUT-BACK FACTOR WHEN TIME INTEGRATION ACCURACY TOL. EXCEEDED     0.8500    
     MAX. RATIO OF TIME INTEG. MEASURE TO TOL. FOR TIME INC. INCREASE 0.7500    
     INCREASE FACTOR FOR TIME INCREMENT WHEN POSSIBLE                 0.8000    
     MIN. TIME INC. INCREASE FACTOR IN LINEAR TRANSIENT PROBLEMS      0.9500    
     MAX. RATIO OF TIME INCREMENT TO STABILITY LIMIT                   1.000    
     FRACTION OF STABILITY LIMIT FOR NEW TIME INCREMENT               0.9500    
     TIME INCREMENT INCREASE FACTOR BEFORE A TIME POINT                1.000    
     GLOBAL STABILIZATION CONTROL IS NOT USED

          PRINT OF INCREMENT NUMBER, TIME, ETC., EVERY    1  INCREMENTS

     THE MAXIMUM NUMBER OF INCREMENTS IN THIS STEP IS                 *******

          LARGE DISPLACEMENT THEORY WILL BE USED

          UNSYMMETRIC MATRIX STORAGE AND SOLUTION WILL BE USED

     LINEAR EXTRAPOLATION WILL BE USED

     CHARACTERISTIC ELEMENT LENGTH     9.764E-04

     DETAILS REGARDING ACTUAL SOLUTION WAVEFRONT REQUESTED

     DETAILED OUTPUT OF DIAGNOSTICS TO DATABASE REQUESTED

     PRINT OF INCREMENT NUMBER, TIME, ETC., TO THE MESSAGE FILE EVERY     1  INCREMENTS

     ELEMENT OPERATIONS WILL BE CARRIED OUT IN PARALLEL USING   2 THREADS ON 1 DOMAIN

     PARALLEL CONTACT TRACKING ENABLED


     COLLECTING MODEL CONSTRAINT INFORMATION FOR OVERCONSTRAINT CHECKS

     COLLECTING STEP CONSTRAINT INFORMATION FOR OVERCONSTRAINT CHECKS


  INCREMENT     1 STARTS. ATTEMPT NUMBER  1, TIME INCREMENT   1.00    
 
     INITIAL ELEMENT LOAD BALANCE
            DOMAIN    1     THREAD    NUMBER OF ELEMENTS
                              1            749
                              2            760
 
	UNSYMMETRIC NEW DIRECT SPARSE SOLVER RUNNING ON
 	1 HOST x 1 MPI RANK PER HOST x 2 THREADS PER RANK
        NUMBER OF EQUATIONS:  12864
        NUMBER OF RHS:        1
        NUMBER OF FLOPS:      9.247e+08
        SOLVER ELAPSED TIME:  40ms

               CONVERGENCE CHECKS FOR EQUILIBRIUM ITERATION     1


 AVERAGE FORCE                      0.399       TIME AVG. FORCE       0.399    
 LARGEST SCALED RESIDUAL FORCE      1.218E-05   AT NODE       2127   DOF  1
   INSTANCE: ELASTIC_PLATE_1                                                                 
  CORRESPONDING RESIDUAL FORCE      1.218E-05
 LARGEST INCREMENT OF DISP.         1.000E-06   AT NODE       2083   DOF  2
   INSTANCE: ELASTIC_PLATE_1                                                                 
 LARGEST CORRECTION TO DISP.        1.000E-06   AT NODE       2083   DOF  2
   INSTANCE: ELASTIC_PLATE_1                                                                 
          DISP.    CORRECTION TOO LARGE COMPARED TO DISP.    INCREMENT

 AVERAGE HEAT FLUX                  1.132E-03   TIME AVG. HEAT FLUX   1.132E-03
 LARGEST RESIDUAL HEAT FLUX        -9.365E-07   AT NODE       2538   DOF 11
   INSTANCE: ELASTIC_PLATE_1                                                                 
 LARGEST INCREMENT OF TEMP.          100.       AT NODE       2083   DOF 11
   INSTANCE: ELASTIC_PLATE_1                                                                 
 LARGEST CORRECTION TO TEMP.         100.       AT NODE       2083   DOF 11
   INSTANCE: ELASTIC_PLATE_1                                                                 
          TEMP.    CORRECTION TOO LARGE COMPARED TO TEMP.    INCREMENT
 
	UNSYMMETRIC NEW DIRECT SPARSE SOLVER RUNNING ON
 	1 HOST x 1 MPI RANK PER HOST x 2 THREADS PER RANK
        NUMBER OF EQUATIONS:  12864
        NUMBER OF RHS:        1
        NUMBER OF FLOPS:      9.247e+08
        SOLVER ELAPSED TIME:  26ms

               CONVERGENCE CHECKS FOR EQUILIBRIUM ITERATION     2


 AVERAGE FORCE                      0.399       TIME AVG. FORCE       0.399    
 LARGEST SCALED RESIDUAL FORCE      4.025E-10   AT NODE         55   DOF  2
   INSTANCE: ELASTIC_PLATE_1                                                                 
  CORRESPONDING RESIDUAL FORCE      4.025E-10
 LARGEST INCREMENT OF DISP.         1.000E-06   AT NODE       2083   DOF  2
   INSTANCE: ELASTIC_PLATE_1                                                                 
 LARGEST CORRECTION TO DISP.        4.498E-12   AT NODE       1764   DOF  1
   INSTANCE: ELASTIC_PLATE_1                                                                 
          THE FORCE     EQUILIBRIUM EQUATIONS HAVE CONVERGED

 AVERAGE HEAT FLUX                  1.132E-03   TIME AVG. HEAT FLUX   1.132E-03
 LARGEST RESIDUAL HEAT FLUX         4.032E-12   AT NODE       2218   DOF 11
   INSTANCE: ELASTIC_PLATE_1                                                                 
 LARGEST INCREMENT OF TEMP.          100.       AT NODE       2083   DOF 11
   INSTANCE: ELASTIC_PLATE_1                                                                 
 LARGEST CORRECTION TO TEMP.       -2.298E-04   AT NODE       2133   DOF 11
   INSTANCE: ELASTIC_PLATE_1                                                                 
          THE HEAT FLUX EQUILIBRIUM EQUATIONS HAVE CONVERGED

 MAXIMUM NON-PRESCRIBED INCREMENT IN TEMPERATURE IS    12.2    

 ITERATION SUMMARY FOR THE INCREMENT:   2 TOTAL ITERATIONS, OF WHICH
   0 ARE SEVERE DISCONTINUITY ITERATIONS AND  2 ARE EQUILIBRIUM ITERATIONS.

 TIME INCREMENT COMPLETED   1.00    ,  FRACTION OF STEP COMPLETED  1.000E-02
 STEP TIME COMPLETED        1.00    ,  TOTAL TIME COMPLETED         1.00    


  INCREMENT     2 STARTS. ATTEMPT NUMBER  1, TIME INCREMENT   1.00    
 
	UNSYMMETRIC NEW DIRECT SPARSE SOLVER RUNNING ON
 	1 HOST x 1 MPI RANK PER HOST x 2 THREADS PER RANK
        NUMBER OF EQUATIONS:  12864
        NUMBER OF RHS:        1
        NUMBER OF FLOPS:      9.247e+08
        SOLVER ELAPSED TIME:  27ms

               CONVERGENCE CHECKS FOR EQUILIBRIUM ITERATION     1


 AVERAGE FORCE                      0.800       TIME AVG. FORCE       0.600    
 LARGEST SCALED RESIDUAL FORCE     -2.699E-10   AT NODE        929   DOF  1
   INSTANCE: ELASTIC_PLATE_1                                                                 
  CORRESPONDING RESIDUAL FORCE     -2.699E-10
 LARGEST INCREMENT OF DISP.         1.000E-06   AT NODE       2083   DOF  2
   INSTANCE: ELASTIC_PLATE_1                                                                 
 LARGEST CORRECTION TO DISP.        9.587E-12   AT NODE       1768   DOF  1
   INSTANCE: ELASTIC_PLATE_1                                                                 
          THE FORCE     EQUILIBRIUM RESPONSE WAS LINEAR IN THIS INCREMENT

 AVERAGE HEAT FLUX                  3.930E-03   TIME AVG. HEAT FLUX   2.531E-03
 LARGEST RESIDUAL HEAT FLUX         6.224E-12   AT NODE       2538   DOF 11
   INSTANCE: ELASTIC_PLATE_1                                                                 
 LARGEST INCREMENT OF TEMP.          9.58       AT NODE       2857   DOF 11
   INSTANCE: ELASTIC_PLATE_1                                                                 
 LARGEST CORRECTION TO TEMP.        -100.       AT NODE       2083   DOF 11
   INSTANCE: ELASTIC_PLATE_1                                                                 
          THE HEAT FLUX EQUILIBRIUM RESPONSE WAS LINEAR IN THIS INCREMENT

 MAXIMUM NON-PRESCRIBED INCREMENT IN TEMPERATURE IS    9.58    

 ITERATION SUMMARY FOR THE INCREMENT:   1 TOTAL ITERATIONS, OF WHICH
   0 ARE SEVERE DISCONTINUITY ITERATIONS AND  1 ARE EQUILIBRIUM ITERATIONS.

 TIME INCREMENT COMPLETED   1.00    ,  FRACTION OF STEP COMPLETED  2.000E-02
 STEP TIME COMPLETED        2.00    ,  TOTAL TIME COMPLETED         2.00    


  INCREMENT     3 STARTS. ATTEMPT NUMBER  1, TIME INCREMENT   1.00    
 
	UNSYMMETRIC NEW DIRECT SPARSE SOLVER RUNNING ON
 	1 HOST x 1 MPI RANK PER HOST x 2 THREADS PER RANK
        NUMBER OF EQUATIONS:  12864
        NUMBER OF RHS:        1
        NUMBER OF FLOPS:      9.247e+08
        SOLVER ELAPSED TIME:  28ms

               CONVERGENCE CHECKS FOR EQUILIBRIUM ITERATION     1


 AVERAGE FORCE                       1.20       TIME AVG. FORCE       0.799    
 LARGEST SCALED RESIDUAL FORCE     -2.698E-10   AT NODE        929   DOF  1
   INSTANCE: ELASTIC_PLATE_1                                                                 
  CORRESPONDING RESIDUAL FORCE     -2.698E-10
 LARGEST INCREMENT OF DISP.         1.000E-06   AT NODE       2083   DOF  2
   INSTANCE: ELASTIC_PLATE_1                                                                 
 LARGEST CORRECTION TO DISP.        9.587E-12   AT NODE       1769   DOF  1
   INSTANCE: ELASTIC_PLATE_1                                                                 
          THE FORCE     EQUILIBRIUM RESPONSE WAS LINEAR IN THIS INCREMENT

 AVERAGE HEAT FLUX                  3.406E-03   TIME AVG. HEAT FLUX   2.823E-03
 LARGEST RESIDUAL HEAT FLUX         4.938E-12   AT NODE       2538   DOF 11
   INSTANCE: ELASTIC_PLATE_1                                                                 
 LARGEST INCREMENT OF TEMP.          7.60       AT NODE       2857   DOF 11
   INSTANCE: ELASTIC_PLATE_1                                                                 
 LARGEST CORRECTION TO TEMP.        -1.98       AT NODE       2218   DOF 11
   INSTANCE: ELASTIC_PLATE_1                                                                 
          THE HEAT FLUX EQUILIBRIUM RESPONSE WAS LINEAR IN THIS INCREMENT

 MAXIMUM NON-PRESCRIBED INCREMENT IN TEMPERATURE IS    7.60    

 ITERATION SUMMARY FOR THE INCREMENT:   1 TOTAL ITERATIONS, OF WHICH
   0 ARE SEVERE DISCONTINUITY ITERATIONS AND  1 ARE EQUILIBRIUM ITERATIONS.

 TIME INCREMENT COMPLETED   1.00    ,  FRACTION OF STEP COMPLETED  3.000E-02
 STEP TIME COMPLETED        3.00    ,  TOTAL TIME COMPLETED         3.00    


  INCREMENT     4 STARTS. ATTEMPT NUMBER  1, TIME INCREMENT   1.00    
 
	UNSYMMETRIC NEW DIRECT SPARSE SOLVER RUNNING ON
 	1 HOST x 1 MPI RANK PER HOST x 2 THREADS PER RANK
        NUMBER OF EQUATIONS:  12864
        NUMBER OF RHS:        1
        NUMBER OF FLOPS:      9.247e+08
        SOLVER ELAPSED TIME:  24ms

               CONVERGENCE CHECKS FOR EQUILIBRIUM ITERATION     1


 AVERAGE FORCE                       1.60       TIME AVG. FORCE       0.999    
 LARGEST SCALED RESIDUAL FORCE     -2.698E-10   AT NODE         58   DOF  1
   INSTANCE: ELASTIC_PLATE_1                                                                 
  CORRESPONDING RESIDUAL FORCE     -2.698E-10
 LARGEST INCREMENT OF DISP.         1.000E-06   AT NODE       2083   DOF  2
   INSTANCE: ELASTIC_PLATE_1                                                                 
 LARGEST CORRECTION TO DISP.        9.586E-12   AT NODE       1768   DOF  1
   INSTANCE: ELASTIC_PLATE_1                                                                 
          THE FORCE     EQUILIBRIUM RESPONSE WAS LINEAR IN THIS INCREMENT

 AVERAGE HEAT FLUX                  3.406E-03   TIME AVG. HEAT FLUX   2.969E-03
 LARGEST RESIDUAL HEAT FLUX         3.977E-12   AT NODE       2218   DOF 11
   INSTANCE: ELASTIC_PLATE_1                                                                 
 LARGEST INCREMENT OF TEMP.          6.12       AT NODE       2861   DOF 11
   INSTANCE: ELASTIC_PLATE_1                                                                 
 LARGEST CORRECTION TO TEMP.        -1.48       AT NODE       2857   DOF 11
   INSTANCE: ELASTIC_PLATE_1                                                                 
          THE HEAT FLUX EQUILIBRIUM RESPONSE WAS LINEAR IN THIS INCREMENT

 MAXIMUM NON-PRESCRIBED INCREMENT IN TEMPERATURE IS    6.12    

 ITERATION SUMMARY FOR THE INCREMENT:   1 TOTAL ITERATIONS, OF WHICH
   0 ARE SEVERE DISCONTINUITY ITERATIONS AND  1 ARE EQUILIBRIUM ITERATIONS.

 TIME INCREMENT COMPLETED   1.00    ,  FRACTION OF STEP COMPLETED  4.000E-02
 STEP TIME COMPLETED        4.00    ,  TOTAL TIME COMPLETED         4.00    


  INCREMENT     5 STARTS. ATTEMPT NUMBER  1, TIME INCREMENT   1.00    
 
	UNSYMMETRIC NEW DIRECT SPARSE SOLVER RUNNING ON
 	1 HOST x 1 MPI RANK PER HOST x 2 THREADS PER RANK
        NUMBER OF EQUATIONS:  12864
        NUMBER OF RHS:        1
        NUMBER OF FLOPS:      9.247e+08
        SOLVER ELAPSED TIME:  25ms

               CONVERGENCE CHECKS FOR EQUILIBRIUM ITERATION     1


 AVERAGE FORCE                       2.00       TIME AVG. FORCE        1.20    
 LARGEST SCALED RESIDUAL FORCE     -2.697E-10   AT NODE         58   DOF  1
   INSTANCE: ELASTIC_PLATE_1                                                                 
  CORRESPONDING RESIDUAL FORCE     -2.697E-10
 LARGEST INCREMENT OF DISP.         1.000E-06   AT NODE       2083   DOF  2
   INSTANCE: ELASTIC_PLATE_1                                                                 
 LARGEST CORRECTION TO DISP.        9.586E-12   AT NODE       1768   DOF  1
   INSTANCE: ELASTIC_PLATE_1                                                                 
          THE FORCE     EQUILIBRIUM RESPONSE WAS LINEAR IN THIS INCREMENT

 AVERAGE HEAT FLUX                  3.005E-03   TIME AVG. HEAT FLUX   2.976E-03
 LARGEST RESIDUAL HEAT FLUX         3.249E-12   AT NODE       2538   DOF 11
   INSTANCE: ELASTIC_PLATE_1                                                                 
 LARGEST INCREMENT OF TEMP.          5.00       AT NODE       2861   DOF 11
   INSTANCE: ELASTIC_PLATE_1                                                                 
 LARGEST CORRECTION TO TEMP.        -1.12       AT NODE       2861   DOF 11
   INSTANCE: ELASTIC_PLATE_1                                                                 
          THE HEAT FLUX EQUILIBRIUM RESPONSE WAS LINEAR IN THIS INCREMENT

 MAXIMUM NON-PRESCRIBED INCREMENT IN TEMPERATURE IS    5.00    

 ITERATION SUMMARY FOR THE INCREMENT:   1 TOTAL ITERATIONS, OF WHICH
   0 ARE SEVERE DISCONTINUITY ITERATIONS AND  1 ARE EQUILIBRIUM ITERATIONS.

 TIME INCREMENT COMPLETED   1.00    ,  FRACTION OF STEP COMPLETED  5.000E-02
 STEP TIME COMPLETED        5.00    ,  TOTAL TIME COMPLETED         5.00    


  INCREMENT     6 STARTS. ATTEMPT NUMBER  1, TIME INCREMENT   1.00    
 
	UNSYMMETRIC NEW DIRECT SPARSE SOLVER RUNNING ON
 	1 HOST x 1 MPI RANK PER HOST x 2 THREADS PER RANK
        NUMBER OF EQUATIONS:  12864
        NUMBER OF RHS:        1
        NUMBER OF FLOPS:      9.247e+08
        SOLVER ELAPSED TIME:  24ms

               CONVERGENCE CHECKS FOR EQUILIBRIUM ITERATION     1


 AVERAGE FORCE                       2.40       TIME AVG. FORCE        1.40    
 LARGEST SCALED RESIDUAL FORCE     -2.697E-10   AT NODE        929   DOF  1
   INSTANCE: ELASTIC_PLATE_1                                                                 
  CORRESPONDING RESIDUAL FORCE     -2.697E-10
 LARGEST INCREMENT OF DISP.         1.000E-06   AT NODE       2083   DOF  2
   INSTANCE: ELASTIC_PLATE_1                                                                 
 LARGEST CORRECTION TO DISP.        9.585E-12   AT NODE       1769   DOF  1
   INSTANCE: ELASTIC_PLATE_1                                                                 
          THE FORCE     EQUILIBRIUM RESPONSE WAS LINEAR IN THIS INCREMENT

 AVERAGE HEAT FLUX                  3.005E-03   TIME AVG. HEAT FLUX   2.981E-03
 LARGEST RESIDUAL HEAT FLUX         2.692E-12   AT NODE       2218   DOF 11
   INSTANCE: ELASTIC_PLATE_1                                                                 
 LARGEST INCREMENT OF TEMP.          4.15       AT NODE       2857   DOF 11
   INSTANCE: ELASTIC_PLATE_1                                                                 
 LARGEST CORRECTION TO TEMP.       -0.857       AT NODE       2861   DOF 11
   INSTANCE: ELASTIC_PLATE_1                                                                 
          THE HEAT FLUX EQUILIBRIUM RESPONSE WAS LINEAR IN THIS INCREMENT

 MAXIMUM NON-PRESCRIBED INCREMENT IN TEMPERATURE IS    4.15    

 ITERATION SUMMARY FOR THE INCREMENT:   1 TOTAL ITERATIONS, OF WHICH
   0 ARE SEVERE DISCONTINUITY ITERATIONS AND  1 ARE EQUILIBRIUM ITERATIONS.

 TIME INCREMENT COMPLETED   1.00    ,  FRACTION OF STEP COMPLETED  6.000E-02
 STEP TIME COMPLETED        6.00    ,  TOTAL TIME COMPLETED         6.00    


  INCREMENT     7 STARTS. ATTEMPT NUMBER  1, TIME INCREMENT   1.00    
 
	UNSYMMETRIC NEW DIRECT SPARSE SOLVER RUNNING ON
 	1 HOST x 1 MPI RANK PER HOST x 2 THREADS PER RANK
        NUMBER OF EQUATIONS:  12864
        NUMBER OF RHS:        1
        NUMBER OF FLOPS:      9.247e+08
        SOLVER ELAPSED TIME:  24ms

               CONVERGENCE CHECKS FOR EQUILIBRIUM ITERATION     1


 AVERAGE FORCE                       2.80       TIME AVG. FORCE        1.60    
 LARGEST SCALED RESIDUAL FORCE     -2.696E-10   AT NODE         58   DOF  1
   INSTANCE: ELASTIC_PLATE_1                                                                 
  CORRESPONDING RESIDUAL FORCE     -2.696E-10
 LARGEST INCREMENT OF DISP.         1.000E-06   AT NODE       2083   DOF  2
   INSTANCE: ELASTIC_PLATE_1                                                                 
 LARGEST CORRECTION TO DISP.        9.585E-12   AT NODE       1768   DOF  1
   INSTANCE: ELASTIC_PLATE_1                                                                 
          THE FORCE     EQUILIBRIUM RESPONSE WAS LINEAR IN THIS INCREMENT

 AVERAGE HEAT FLUX                  2.689E-03   TIME AVG. HEAT FLUX   2.939E-03
 LARGEST RESIDUAL HEAT FLUX         2.259E-12   AT NODE       2218   DOF 11
   INSTANCE: ELASTIC_PLATE_1                                                                 
 LARGEST INCREMENT OF TEMP.          3.48       AT NODE       2861   DOF 11
   INSTANCE: ELASTIC_PLATE_1                                                                 
 LARGEST CORRECTION TO TEMP.       -0.665       AT NODE       2857   DOF 11
   INSTANCE: ELASTIC_PLATE_1                                                                 
          THE HEAT FLUX EQUILIBRIUM RESPONSE WAS LINEAR IN THIS INCREMENT

 MAXIMUM NON-PRESCRIBED INCREMENT IN TEMPERATURE IS    3.48    

 ITERATION SUMMARY FOR THE INCREMENT:   1 TOTAL ITERATIONS, OF WHICH
   0 ARE SEVERE DISCONTINUITY ITERATIONS AND  1 ARE EQUILIBRIUM ITERATIONS.

 TIME INCREMENT COMPLETED   1.00    ,  FRACTION OF STEP COMPLETED  7.000E-02
 STEP TIME COMPLETED        7.00    ,  TOTAL TIME COMPLETED         7.00    


  INCREMENT     8 STARTS. ATTEMPT NUMBER  1, TIME INCREMENT   1.00    
 
	UNSYMMETRIC NEW DIRECT SPARSE SOLVER RUNNING ON
 	1 HOST x 1 MPI RANK PER HOST x 2 THREADS PER RANK
        NUMBER OF EQUATIONS:  12864
        NUMBER OF RHS:        1
        NUMBER OF FLOPS:      9.247e+08
        SOLVER ELAPSED TIME:  25ms

               CONVERGENCE CHECKS FOR EQUILIBRIUM ITERATION     1


 AVERAGE FORCE                       3.20       TIME AVG. FORCE        1.80    
 LARGEST SCALED RESIDUAL FORCE     -2.696E-10   AT NODE         58   DOF  1
   INSTANCE: ELASTIC_PLATE_1                                                                 
  CORRESPONDING RESIDUAL FORCE     -2.696E-10
 LARGEST INCREMENT OF DISP.         1.000E-06   AT NODE       2083   DOF  2
   INSTANCE: ELASTIC_PLATE_1                                                                 
 LARGEST CORRECTION TO DISP.        9.584E-12   AT NODE       1769   DOF  1
   INSTANCE: ELASTIC_PLATE_1                                                                 
          THE FORCE     EQUILIBRIUM RESPONSE WAS LINEAR IN THIS INCREMENT

 AVERAGE HEAT FLUX                  2.689E-03   TIME AVG. HEAT FLUX   2.908E-03
 LARGEST RESIDUAL HEAT FLUX         1.920E-12   AT NODE       2218   DOF 11
   INSTANCE: ELASTIC_PLATE_1                                                                 
 LARGEST INCREMENT OF TEMP.          2.96       AT NODE       2857   DOF 11
   INSTANCE: ELASTIC_PLATE_1                                                                 
 LARGEST CORRECTION TO TEMP.       -0.522       AT NODE       2861   DOF 11
   INSTANCE: ELASTIC_PLATE_1                                                                 
          THE HEAT FLUX EQUILIBRIUM RESPONSE WAS LINEAR IN THIS INCREMENT

 MAXIMUM NON-PRESCRIBED INCREMENT IN TEMPERATURE IS    2.96    

 ITERATION SUMMARY FOR THE INCREMENT:   1 TOTAL ITERATIONS, OF WHICH
   0 ARE SEVERE DISCONTINUITY ITERATIONS AND  1 ARE EQUILIBRIUM ITERATIONS.

 TIME INCREMENT COMPLETED   1.00    ,  FRACTION OF STEP COMPLETED  8.000E-02
 STEP TIME COMPLETED        8.00    ,  TOTAL TIME COMPLETED         8.00    


  INCREMENT     9 STARTS. ATTEMPT NUMBER  1, TIME INCREMENT   1.00    
 
	UNSYMMETRIC NEW DIRECT SPARSE SOLVER RUNNING ON
 	1 HOST x 1 MPI RANK PER HOST x 2 THREADS PER RANK
        NUMBER OF EQUATIONS:  12864
        NUMBER OF RHS:        1
        NUMBER OF FLOPS:      9.247e+08
        SOLVER ELAPSED TIME:  24ms

               CONVERGENCE CHECKS FOR EQUILIBRIUM ITERATION     1


 AVERAGE FORCE                       3.60       TIME AVG. FORCE        2.00    
 LARGEST SCALED RESIDUAL FORCE     -2.695E-10   AT NODE        929   DOF  1
   INSTANCE: ELASTIC_PLATE_1                                                                 
  CORRESPONDING RESIDUAL FORCE     -2.695E-10
 LARGEST INCREMENT OF DISP.         1.000E-06   AT NODE       2083   DOF  2
   INSTANCE: ELASTIC_PLATE_1                                                                 
 LARGEST CORRECTION TO DISP.        9.584E-12   AT NODE       1768   DOF  1
   INSTANCE: ELASTIC_PLATE_1                                                                 
          THE FORCE     EQUILIBRIUM RESPONSE WAS LINEAR IN THIS INCREMENT

 AVERAGE HEAT FLUX                  2.433E-03   TIME AVG. HEAT FLUX   2.855E-03
 LARGEST RESIDUAL HEAT FLUX         1.650E-12   AT NODE       2218   DOF 11
   INSTANCE: ELASTIC_PLATE_1                                                                 
 LARGEST INCREMENT OF TEMP.          2.54       AT NODE       2861   DOF 11
   INSTANCE: ELASTIC_PLATE_1                                                                 
 LARGEST CORRECTION TO TEMP.       -0.415       AT NODE       2857   DOF 11
   INSTANCE: ELASTIC_PLATE_1                                                                 
          THE HEAT FLUX EQUILIBRIUM RESPONSE WAS LINEAR IN THIS INCREMENT

 MAXIMUM NON-PRESCRIBED INCREMENT IN TEMPERATURE IS    2.54    

 ITERATION SUMMARY FOR THE INCREMENT:   1 TOTAL ITERATIONS, OF WHICH
   0 ARE SEVERE DISCONTINUITY ITERATIONS AND  1 ARE EQUILIBRIUM ITERATIONS.

 TIME INCREMENT COMPLETED   1.00    ,  FRACTION OF STEP COMPLETED  9.000E-02
 STEP TIME COMPLETED        9.00    ,  TOTAL TIME COMPLETED         9.00    


  INCREMENT    10 STARTS. ATTEMPT NUMBER  1, TIME INCREMENT   1.00    
 
	UNSYMMETRIC NEW DIRECT SPARSE SOLVER RUNNING ON
 	1 HOST x 1 MPI RANK PER HOST x 2 THREADS PER RANK
        NUMBER OF EQUATIONS:  12864
        NUMBER OF RHS:        1
        NUMBER OF FLOPS:      9.247e+08
        SOLVER ELAPSED TIME:  24ms

               CONVERGENCE CHECKS FOR EQUILIBRIUM ITERATION     1


 AVERAGE FORCE                       4.00       TIME AVG. FORCE        2.20    
 LARGEST SCALED RESIDUAL FORCE     -2.695E-10   AT NODE         58   DOF  1
   INSTANCE: ELASTIC_PLATE_1                                                                 
  CORRESPONDING RESIDUAL FORCE     -2.695E-10
 LARGEST INCREMENT OF DISP.         1.000E-06   AT NODE       2083   DOF  2
   INSTANCE: ELASTIC_PLATE_1                                                                 
 LARGEST CORRECTION TO DISP.        9.583E-12   AT NODE       1768   DOF  1
   INSTANCE: ELASTIC_PLATE_1                                                                 
          THE FORCE     EQUILIBRIUM RESPONSE WAS LINEAR IN THIS INCREMENT

 AVERAGE HEAT FLUX                  2.433E-03   TIME AVG. HEAT FLUX   2.813E-03
 LARGEST RESIDUAL HEAT FLUX         1.500E-12   AT NODE       2217   DOF 11
   INSTANCE: ELASTIC_PLATE_1                                                                 
 LARGEST INCREMENT OF TEMP.          2.32       AT NODE       2862   DOF 11
   INSTANCE: ELASTIC_PLATE_1                                                                 
 LARGEST CORRECTION TO TEMP.       -0.334       AT NODE       2861   DOF 11
   INSTANCE: ELASTIC_PLATE_1                                                                 
          THE HEAT FLUX EQUILIBRIUM RESPONSE WAS LINEAR IN THIS INCREMENT

 MAXIMUM NON-PRESCRIBED INCREMENT IN TEMPERATURE IS    2.32    

 ITERATION SUMMARY FOR THE INCREMENT:   1 TOTAL ITERATIONS, OF WHICH
   0 ARE SEVERE DISCONTINUITY ITERATIONS AND  1 ARE EQUILIBRIUM ITERATIONS.

 TIME INCREMENT COMPLETED   1.00    ,  FRACTION OF STEP COMPLETED  0.100    
 STEP TIME COMPLETED        10.0    ,  TOTAL TIME COMPLETED         10.0    


  INCREMENT    11 STARTS. ATTEMPT NUMBER  1, TIME INCREMENT   1.00    
 
	UNSYMMETRIC NEW DIRECT SPARSE SOLVER RUNNING ON
 	1 HOST x 1 MPI RANK PER HOST x 2 THREADS PER RANK
        NUMBER OF EQUATIONS:  12864
        NUMBER OF RHS:        1
        NUMBER OF FLOPS:      9.247e+08
        SOLVER ELAPSED TIME:  25ms

               CONVERGENCE CHECKS FOR EQUILIBRIUM ITERATION     1


 AVERAGE FORCE                       4.40       TIME AVG. FORCE        2.40    
 LARGEST SCALED RESIDUAL FORCE     -2.694E-10   AT NODE         58   DOF  1
   INSTANCE: ELASTIC_PLATE_1                                                                 
  CORRESPONDING RESIDUAL FORCE     -2.694E-10
 LARGEST INCREMENT OF DISP.         1.000E-06   AT NODE       2083   DOF  2
   INSTANCE: ELASTIC_PLATE_1                                                                 
 LARGEST CORRECTION TO DISP.        9.583E-12   AT NODE       1769   DOF  1
   INSTANCE: ELASTIC_PLATE_1                                                                 
          THE FORCE     EQUILIBRIUM RESPONSE WAS LINEAR IN THIS INCREMENT

 AVERAGE HEAT FLUX                  2.433E-03   TIME AVG. HEAT FLUX   2.778E-03
 LARGEST RESIDUAL HEAT FLUX         1.401E-12   AT NODE       2537   DOF 11
   INSTANCE: ELASTIC_PLATE_1                                                                 
 LARGEST INCREMENT OF TEMP.          2.17       AT NODE       2856   DOF 11
   INSTANCE: ELASTIC_PLATE_1                                                                 
 LARGEST CORRECTION TO TEMP.       -0.272       AT NODE       2861   DOF 11
   INSTANCE: ELASTIC_PLATE_1                                                                 
          THE HEAT FLUX EQUILIBRIUM RESPONSE WAS LINEAR IN THIS INCREMENT

 MAXIMUM NON-PRESCRIBED INCREMENT IN TEMPERATURE IS    2.17    

 ITERATION SUMMARY FOR THE INCREMENT:   1 TOTAL ITERATIONS, OF WHICH
   0 ARE SEVERE DISCONTINUITY ITERATIONS AND  1 ARE EQUILIBRIUM ITERATIONS.

 TIME INCREMENT COMPLETED   1.00    ,  FRACTION OF STEP COMPLETED  0.110    
 STEP TIME COMPLETED        11.0    ,  TOTAL TIME COMPLETED         11.0    


  INCREMENT    12 STARTS. ATTEMPT NUMBER  1, TIME INCREMENT   1.00    
 
	UNSYMMETRIC NEW DIRECT SPARSE SOLVER RUNNING ON
 	1 HOST x 1 MPI RANK PER HOST x 2 THREADS PER RANK
        NUMBER OF EQUATIONS:  12864
        NUMBER OF RHS:        1
        NUMBER OF FLOPS:      9.247e+08
        SOLVER ELAPSED TIME:  24ms

               CONVERGENCE CHECKS FOR EQUILIBRIUM ITERATION     1


 AVERAGE FORCE                       4.80       TIME AVG. FORCE        2.60    
 LARGEST SCALED RESIDUAL FORCE     -2.694E-10   AT NODE        929   DOF  1
   INSTANCE: ELASTIC_PLATE_1                                                                 
  CORRESPONDING RESIDUAL FORCE     -2.694E-10
 LARGEST INCREMENT OF DISP.         1.000E-06   AT NODE       2083   DOF  2
   INSTANCE: ELASTIC_PLATE_1                                                                 
 LARGEST CORRECTION TO DISP.        9.583E-12   AT NODE       1768   DOF  1
   INSTANCE: ELASTIC_PLATE_1                                                                 
          THE FORCE     EQUILIBRIUM RESPONSE WAS LINEAR IN THIS INCREMENT

 AVERAGE HEAT FLUX                  2.221E-03   TIME AVG. HEAT FLUX   2.732E-03
 LARGEST RESIDUAL HEAT FLUX         1.307E-12   AT NODE       2217   DOF 11
   INSTANCE: ELASTIC_PLATE_1                                                                 
 LARGEST INCREMENT OF TEMP.          2.02       AT NODE       2862   DOF 11
   INSTANCE: ELASTIC_PLATE_1                                                                 
 LARGEST CORRECTION TO TEMP.       -0.224       AT NODE       2857   DOF 11
   INSTANCE: ELASTIC_PLATE_1                                                                 
          THE HEAT FLUX EQUILIBRIUM RESPONSE WAS LINEAR IN THIS INCREMENT

 MAXIMUM NON-PRESCRIBED INCREMENT IN TEMPERATURE IS    2.02    

 ITERATION SUMMARY FOR THE INCREMENT:   1 TOTAL ITERATIONS, OF WHICH
   0 ARE SEVERE DISCONTINUITY ITERATIONS AND  1 ARE EQUILIBRIUM ITERATIONS.

 TIME INCREMENT COMPLETED   1.00    ,  FRACTION OF STEP COMPLETED  0.120    
 STEP TIME COMPLETED        12.0    ,  TOTAL TIME COMPLETED         12.0    


  INCREMENT    13 STARTS. ATTEMPT NUMBER  1, TIME INCREMENT   1.00    
 
	UNSYMMETRIC NEW DIRECT SPARSE SOLVER RUNNING ON
 	1 HOST x 1 MPI RANK PER HOST x 2 THREADS PER RANK
        NUMBER OF EQUATIONS:  12864
        NUMBER OF RHS:        1
        NUMBER OF FLOPS:      9.247e+08
        SOLVER ELAPSED TIME:  25ms

               CONVERGENCE CHECKS FOR EQUILIBRIUM ITERATION     1


 AVERAGE FORCE                       5.20       TIME AVG. FORCE        2.80    
 LARGEST SCALED RESIDUAL FORCE     -2.693E-10   AT NODE         58   DOF  1
   INSTANCE: ELASTIC_PLATE_1                                                                 
  CORRESPONDING RESIDUAL FORCE     -2.693E-10
 LARGEST INCREMENT OF DISP.         1.000E-06   AT NODE       2083   DOF  2
   INSTANCE: ELASTIC_PLATE_1                                                                 
 LARGEST CORRECTION TO DISP.        9.582E-12   AT NODE       1769   DOF  1
   INSTANCE: ELASTIC_PLATE_1                                                                 
          THE FORCE     EQUILIBRIUM RESPONSE WAS LINEAR IN THIS INCREMENT

 AVERAGE HEAT FLUX                  2.221E-03   TIME AVG. HEAT FLUX   2.693E-03
 LARGEST RESIDUAL HEAT FLUX         1.220E-12   AT NODE       2217   DOF 11
   INSTANCE: ELASTIC_PLATE_1                                                                 
 LARGEST INCREMENT OF TEMP.          1.89       AT NODE       2856   DOF 11
   INSTANCE: ELASTIC_PLATE_1                                                                 
 LARGEST CORRECTION TO TEMP.       -0.186       AT NODE       2857   DOF 11
   INSTANCE: ELASTIC_PLATE_1                                                                 
          THE HEAT FLUX EQUILIBRIUM RESPONSE WAS LINEAR IN THIS INCREMENT

 MAXIMUM NON-PRESCRIBED INCREMENT IN TEMPERATURE IS    1.89    

 ITERATION SUMMARY FOR THE INCREMENT:   1 TOTAL ITERATIONS, OF WHICH
   0 ARE SEVERE DISCONTINUITY ITERATIONS AND  1 ARE EQUILIBRIUM ITERATIONS.

 TIME INCREMENT COMPLETED   1.00    ,  FRACTION OF STEP COMPLETED  0.130    
 STEP TIME COMPLETED        13.0    ,  TOTAL TIME COMPLETED         13.0    


  INCREMENT    14 STARTS. ATTEMPT NUMBER  1, TIME INCREMENT   1.00    
 
	UNSYMMETRIC NEW DIRECT SPARSE SOLVER RUNNING ON
 	1 HOST x 1 MPI RANK PER HOST x 2 THREADS PER RANK
        NUMBER OF EQUATIONS:  12864
        NUMBER OF RHS:        1
        NUMBER OF FLOPS:      9.247e+08
        SOLVER ELAPSED TIME:  25ms

               CONVERGENCE CHECKS FOR EQUILIBRIUM ITERATION     1


 AVERAGE FORCE                       5.60       TIME AVG. FORCE        3.00    
 LARGEST SCALED RESIDUAL FORCE     -2.693E-10   AT NODE        929   DOF  1
   INSTANCE: ELASTIC_PLATE_1                                                                 
  CORRESPONDING RESIDUAL FORCE     -2.693E-10
 LARGEST INCREMENT OF DISP.         1.000E-06   AT NODE       2083   DOF  2
   INSTANCE: ELASTIC_PLATE_1                                                                 
 LARGEST CORRECTION TO DISP.        9.582E-12   AT NODE       1769   DOF  1
   INSTANCE: ELASTIC_PLATE_1                                                                 
          THE FORCE     EQUILIBRIUM RESPONSE WAS LINEAR IN THIS INCREMENT

 AVERAGE HEAT FLUX                  2.221E-03   TIME AVG. HEAT FLUX   2.659E-03
 LARGEST RESIDUAL HEAT FLUX         1.139E-12   AT NODE       2537   DOF 11
   INSTANCE: ELASTIC_PLATE_1                                                                 
 LARGEST INCREMENT OF TEMP.          1.76       AT NODE       2862   DOF 11
   INSTANCE: ELASTIC_PLATE_1                                                                 
 LARGEST CORRECTION TO TEMP.       -0.156       AT NODE       2861   DOF 11
   INSTANCE: ELASTIC_PLATE_1                                                                 
          THE HEAT FLUX EQUILIBRIUM RESPONSE WAS LINEAR IN THIS INCREMENT

 MAXIMUM NON-PRESCRIBED INCREMENT IN TEMPERATURE IS    1.76    

 ITERATION SUMMARY FOR THE INCREMENT:   1 TOTAL ITERATIONS, OF WHICH
   0 ARE SEVERE DISCONTINUITY ITERATIONS AND  1 ARE EQUILIBRIUM ITERATIONS.

 TIME INCREMENT COMPLETED   1.00    ,  FRACTION OF STEP COMPLETED  0.140    
 STEP TIME COMPLETED        14.0    ,  TOTAL TIME COMPLETED         14.0    


  INCREMENT    15 STARTS. ATTEMPT NUMBER  1, TIME INCREMENT   1.00    
 
	UNSYMMETRIC NEW DIRECT SPARSE SOLVER RUNNING ON
 	1 HOST x 1 MPI RANK PER HOST x 2 THREADS PER RANK
        NUMBER OF EQUATIONS:  12864
        NUMBER OF RHS:        1
        NUMBER OF FLOPS:      9.247e+08
        SOLVER ELAPSED TIME:  24ms

               CONVERGENCE CHECKS FOR EQUILIBRIUM ITERATION     1


 AVERAGE FORCE                       6.00       TIME AVG. FORCE        3.20    
 LARGEST SCALED RESIDUAL FORCE     -2.692E-10   AT NODE         58   DOF  1
   INSTANCE: ELASTIC_PLATE_1                                                                 
  CORRESPONDING RESIDUAL FORCE     -2.692E-10
 LARGEST INCREMENT OF DISP.         1.000E-06   AT NODE       2083   DOF  2
   INSTANCE: ELASTIC_PLATE_1                                                                 
 LARGEST CORRECTION TO DISP.        9.581E-12   AT NODE       1769   DOF  1
   INSTANCE: ELASTIC_PLATE_1                                                                 
          THE FORCE     EQUILIBRIUM RESPONSE WAS LINEAR IN THIS INCREMENT

 AVERAGE HEAT FLUX                  2.043E-03   TIME AVG. HEAT FLUX   2.618E-03
 LARGEST RESIDUAL HEAT FLUX         1.065E-12   AT NODE       2537   DOF 11
   INSTANCE: ELASTIC_PLATE_1                                                                 
 LARGEST INCREMENT OF TEMP.          1.65       AT NODE       2856   DOF 11
   INSTANCE: ELASTIC_PLATE_1                                                                 
 LARGEST CORRECTION TO TEMP.       -0.132       AT NODE       2857   DOF 11
   INSTANCE: ELASTIC_PLATE_1                                                                 
          THE HEAT FLUX EQUILIBRIUM RESPONSE WAS LINEAR IN THIS INCREMENT

 MAXIMUM NON-PRESCRIBED INCREMENT IN TEMPERATURE IS    1.65    

 ITERATION SUMMARY FOR THE INCREMENT:   1 TOTAL ITERATIONS, OF WHICH
   0 ARE SEVERE DISCONTINUITY ITERATIONS AND  1 ARE EQUILIBRIUM ITERATIONS.

 TIME INCREMENT COMPLETED   1.00    ,  FRACTION OF STEP COMPLETED  0.150    
 STEP TIME COMPLETED        15.0    ,  TOTAL TIME COMPLETED         15.0    


  INCREMENT    16 STARTS. ATTEMPT NUMBER  1, TIME INCREMENT   1.00    
 
	UNSYMMETRIC NEW DIRECT SPARSE SOLVER RUNNING ON
 	1 HOST x 1 MPI RANK PER HOST x 2 THREADS PER RANK
        NUMBER OF EQUATIONS:  12864
        NUMBER OF RHS:        1
        NUMBER OF FLOPS:      9.247e+08
        SOLVER ELAPSED TIME:  29ms

               CONVERGENCE CHECKS FOR EQUILIBRIUM ITERATION     1


 AVERAGE FORCE                       6.40       TIME AVG. FORCE        3.40    
 LARGEST SCALED RESIDUAL FORCE     -2.692E-10   AT NODE         58   DOF  1
   INSTANCE: ELASTIC_PLATE_1                                                                 
  CORRESPONDING RESIDUAL FORCE     -2.692E-10
 LARGEST INCREMENT OF DISP.         1.000E-06   AT NODE       2083   DOF  2
   INSTANCE: ELASTIC_PLATE_1                                                                 
 LARGEST CORRECTION TO DISP.        9.581E-12   AT NODE       1768   DOF  1
   INSTANCE: ELASTIC_PLATE_1                                                                 
          THE FORCE     EQUILIBRIUM RESPONSE WAS LINEAR IN THIS INCREMENT

 AVERAGE HEAT FLUX                  2.043E-03   TIME AVG. HEAT FLUX   2.582E-03
 LARGEST RESIDUAL HEAT FLUX         9.975E-13   AT NODE       2537   DOF 11
   INSTANCE: ELASTIC_PLATE_1                                                                 
 LARGEST INCREMENT OF TEMP.          1.55       AT NODE       2862   DOF 11
   INSTANCE: ELASTIC_PLATE_1                                                                 
 LARGEST CORRECTION TO TEMP.       -0.113       AT NODE       2861   DOF 11
   INSTANCE: ELASTIC_PLATE_1                                                                 
          THE HEAT FLUX EQUILIBRIUM RESPONSE WAS LINEAR IN THIS INCREMENT

 MAXIMUM NON-PRESCRIBED INCREMENT IN TEMPERATURE IS    1.55    

 ITERATION SUMMARY FOR THE INCREMENT:   1 TOTAL ITERATIONS, OF WHICH
   0 ARE SEVERE DISCONTINUITY ITERATIONS AND  1 ARE EQUILIBRIUM ITERATIONS.

 TIME INCREMENT COMPLETED   1.00    ,  FRACTION OF STEP COMPLETED  0.160    
 STEP TIME COMPLETED        16.0    ,  TOTAL TIME COMPLETED         16.0    


  INCREMENT    17 STARTS. ATTEMPT NUMBER  1, TIME INCREMENT   1.00    
 
	UNSYMMETRIC NEW DIRECT SPARSE SOLVER RUNNING ON
 	1 HOST x 1 MPI RANK PER HOST x 2 THREADS PER RANK
        NUMBER OF EQUATIONS:  12864
        NUMBER OF RHS:        1
        NUMBER OF FLOPS:      9.247e+08
        SOLVER ELAPSED TIME:  24ms

               CONVERGENCE CHECKS FOR EQUILIBRIUM ITERATION     1


 AVERAGE FORCE                       6.80       TIME AVG. FORCE        3.60    
 LARGEST SCALED RESIDUAL FORCE     -2.691E-10   AT NODE         58   DOF  1
   INSTANCE: ELASTIC_PLATE_1                                                                 
  CORRESPONDING RESIDUAL FORCE     -2.691E-10
 LARGEST INCREMENT OF DISP.         1.000E-06   AT NODE       2083   DOF  2
   INSTANCE: ELASTIC_PLATE_1                                                                 
 LARGEST CORRECTION TO DISP.        9.580E-12   AT NODE       1768   DOF  1
   INSTANCE: ELASTIC_PLATE_1                                                                 
          THE FORCE     EQUILIBRIUM RESPONSE WAS LINEAR IN THIS INCREMENT

 AVERAGE HEAT FLUX                  2.043E-03   TIME AVG. HEAT FLUX   2.550E-03
 LARGEST RESIDUAL HEAT FLUX         9.353E-13   AT NODE       2217   DOF 11
   INSTANCE: ELASTIC_PLATE_1                                                                 
 LARGEST INCREMENT OF TEMP.          1.45       AT NODE       2856   DOF 11
   INSTANCE: ELASTIC_PLATE_1                                                                 
 LARGEST CORRECTION TO TEMP.       -9.713E-02   AT NODE       2861   DOF 11
   INSTANCE: ELASTIC_PLATE_1                                                                 
          THE HEAT FLUX EQUILIBRIUM RESPONSE WAS LINEAR IN THIS INCREMENT

 MAXIMUM NON-PRESCRIBED INCREMENT IN TEMPERATURE IS    1.45    

 ITERATION SUMMARY FOR THE INCREMENT:   1 TOTAL ITERATIONS, OF WHICH
   0 ARE SEVERE DISCONTINUITY ITERATIONS AND  1 ARE EQUILIBRIUM ITERATIONS.

 TIME INCREMENT COMPLETED   1.00    ,  FRACTION OF STEP COMPLETED  0.170    
 STEP TIME COMPLETED        17.0    ,  TOTAL TIME COMPLETED         17.0    


  INCREMENT    18 STARTS. ATTEMPT NUMBER  1, TIME INCREMENT   1.00    
 
	UNSYMMETRIC NEW DIRECT SPARSE SOLVER RUNNING ON
 	1 HOST x 1 MPI RANK PER HOST x 2 THREADS PER RANK
        NUMBER OF EQUATIONS:  12864
        NUMBER OF RHS:        1
        NUMBER OF FLOPS:      9.247e+08
        SOLVER ELAPSED TIME:  24ms

               CONVERGENCE CHECKS FOR EQUILIBRIUM ITERATION     1


 AVERAGE FORCE                       7.20       TIME AVG. FORCE        3.80    
 LARGEST SCALED RESIDUAL FORCE     -2.690E-10   AT NODE         58   DOF  1
   INSTANCE: ELASTIC_PLATE_1                                                                 
  CORRESPONDING RESIDUAL FORCE     -2.690E-10
 LARGEST INCREMENT OF DISP.         1.000E-06   AT NODE       2083   DOF  2
   INSTANCE: ELASTIC_PLATE_1                                                                 
 LARGEST CORRECTION TO DISP.        9.580E-12   AT NODE       1768   DOF  1
   INSTANCE: ELASTIC_PLATE_1                                                                 
          THE FORCE     EQUILIBRIUM RESPONSE WAS LINEAR IN THIS INCREMENT

 AVERAGE HEAT FLUX                  1.892E-03   TIME AVG. HEAT FLUX   2.514E-03
 LARGEST RESIDUAL HEAT FLUX         8.787E-13   AT NODE       2537   DOF 11
   INSTANCE: ELASTIC_PLATE_1                                                                 
 LARGEST INCREMENT OF TEMP.          1.36       AT NODE       2862   DOF 11
   INSTANCE: ELASTIC_PLATE_1                                                                 
 LARGEST CORRECTION TO TEMP.       -8.750E-02   AT NODE       2856   DOF 11
   INSTANCE: ELASTIC_PLATE_1                                                                 
          THE HEAT FLUX EQUILIBRIUM RESPONSE WAS LINEAR IN THIS INCREMENT

 MAXIMUM NON-PRESCRIBED INCREMENT IN TEMPERATURE IS    1.36    

 ITERATION SUMMARY FOR THE INCREMENT:   1 TOTAL ITERATIONS, OF WHICH
   0 ARE SEVERE DISCONTINUITY ITERATIONS AND  1 ARE EQUILIBRIUM ITERATIONS.

 TIME INCREMENT COMPLETED   1.00    ,  FRACTION OF STEP COMPLETED  0.180    
 STEP TIME COMPLETED        18.0    ,  TOTAL TIME COMPLETED         18.0    


  INCREMENT    19 STARTS. ATTEMPT NUMBER  1, TIME INCREMENT   1.00    
 
	UNSYMMETRIC NEW DIRECT SPARSE SOLVER RUNNING ON
 	1 HOST x 1 MPI RANK PER HOST x 2 THREADS PER RANK
        NUMBER OF EQUATIONS:  12864
        NUMBER OF RHS:        1
        NUMBER OF FLOPS:      9.247e+08
        SOLVER ELAPSED TIME:  24ms

               CONVERGENCE CHECKS FOR EQUILIBRIUM ITERATION     1


 AVERAGE FORCE                       7.59       TIME AVG. FORCE        4.00    
 LARGEST SCALED RESIDUAL FORCE     -2.690E-10   AT NODE         58   DOF  1
   INSTANCE: ELASTIC_PLATE_1                                                                 
  CORRESPONDING RESIDUAL FORCE     -2.690E-10
 LARGEST INCREMENT OF DISP.         1.000E-06   AT NODE       2083   DOF  2
   INSTANCE: ELASTIC_PLATE_1                                                                 
 LARGEST CORRECTION TO DISP.        9.579E-12   AT NODE       1768   DOF  1
   INSTANCE: ELASTIC_PLATE_1                                                                 
          THE FORCE     EQUILIBRIUM RESPONSE WAS LINEAR IN THIS INCREMENT

 AVERAGE HEAT FLUX                  1.892E-03   TIME AVG. HEAT FLUX   2.481E-03
 LARGEST RESIDUAL HEAT FLUX         8.267E-13   AT NODE       2537   DOF 11
   INSTANCE: ELASTIC_PLATE_1                                                                 
 LARGEST INCREMENT OF TEMP.          1.28       AT NODE       2856   DOF 11
   INSTANCE: ELASTIC_PLATE_1                                                                 
 LARGEST CORRECTION TO TEMP.       -8.004E-02   AT NODE       2862   DOF 11
   INSTANCE: ELASTIC_PLATE_1                                                                 
          THE HEAT FLUX EQUILIBRIUM RESPONSE WAS LINEAR IN THIS INCREMENT

 MAXIMUM NON-PRESCRIBED INCREMENT IN TEMPERATURE IS    1.28    

 ITERATION SUMMARY FOR THE INCREMENT:   1 TOTAL ITERATIONS, OF WHICH
   0 ARE SEVERE DISCONTINUITY ITERATIONS AND  1 ARE EQUILIBRIUM ITERATIONS.

 TIME INCREMENT COMPLETED   1.00    ,  FRACTION OF STEP COMPLETED  0.190    
 STEP TIME COMPLETED        19.0    ,  TOTAL TIME COMPLETED         19.0    


  INCREMENT    20 STARTS. ATTEMPT NUMBER  1, TIME INCREMENT   1.00    
 
	UNSYMMETRIC NEW DIRECT SPARSE SOLVER RUNNING ON
 	1 HOST x 1 MPI RANK PER HOST x 2 THREADS PER RANK
        NUMBER OF EQUATIONS:  12864
        NUMBER OF RHS:        1
        NUMBER OF FLOPS:      9.247e+08
        SOLVER ELAPSED TIME:  23ms

               CONVERGENCE CHECKS FOR EQUILIBRIUM ITERATION     1


 AVERAGE FORCE                       7.99       TIME AVG. FORCE        4.20    
 LARGEST SCALED RESIDUAL FORCE     -2.689E-10   AT NODE        929   DOF  1
   INSTANCE: ELASTIC_PLATE_1                                                                 
  CORRESPONDING RESIDUAL FORCE     -2.689E-10
 LARGEST INCREMENT OF DISP.         1.000E-06   AT NODE       2083   DOF  2
   INSTANCE: ELASTIC_PLATE_1                                                                 
 LARGEST CORRECTION TO DISP.        9.579E-12   AT NODE       1769   DOF  1
   INSTANCE: ELASTIC_PLATE_1                                                                 
          THE FORCE     EQUILIBRIUM RESPONSE WAS LINEAR IN THIS INCREMENT

 AVERAGE HEAT FLUX                  1.892E-03   TIME AVG. HEAT FLUX   2.451E-03
 LARGEST RESIDUAL HEAT FLUX         7.791E-13   AT NODE       2217   DOF 11
   INSTANCE: ELASTIC_PLATE_1                                                                 
 LARGEST INCREMENT OF TEMP.          1.21       AT NODE       2862   DOF 11
   INSTANCE: ELASTIC_PLATE_1                                                                 
 LARGEST CORRECTION TO TEMP.       -7.327E-02   AT NODE       2856   DOF 11
   INSTANCE: ELASTIC_PLATE_1                                                                 
          THE HEAT FLUX EQUILIBRIUM RESPONSE WAS LINEAR IN THIS INCREMENT

 MAXIMUM NON-PRESCRIBED INCREMENT IN TEMPERATURE IS    1.21    

 ITERATION SUMMARY FOR THE INCREMENT:   1 TOTAL ITERATIONS, OF WHICH
   0 ARE SEVERE DISCONTINUITY ITERATIONS AND  1 ARE EQUILIBRIUM ITERATIONS.

 TIME INCREMENT COMPLETED   1.00    ,  FRACTION OF STEP COMPLETED  0.200    
 STEP TIME COMPLETED        20.0    ,  TOTAL TIME COMPLETED         20.0    


  INCREMENT    21 STARTS. ATTEMPT NUMBER  1, TIME INCREMENT   1.00    
 
	UNSYMMETRIC NEW DIRECT SPARSE SOLVER RUNNING ON
 	1 HOST x 1 MPI RANK PER HOST x 2 THREADS PER RANK
        NUMBER OF EQUATIONS:  12864
        NUMBER OF RHS:        1
        NUMBER OF FLOPS:      9.247e+08
        SOLVER ELAPSED TIME:  24ms

               CONVERGENCE CHECKS FOR EQUILIBRIUM ITERATION     1


 AVERAGE FORCE                       8.39       TIME AVG. FORCE        4.40    
 LARGEST SCALED RESIDUAL FORCE     -2.689E-10   AT NODE         58   DOF  1
   INSTANCE: ELASTIC_PLATE_1                                                                 
  CORRESPONDING RESIDUAL FORCE     -2.689E-10
 LARGEST INCREMENT OF DISP.         1.000E-06   AT NODE       2083   DOF  2
   INSTANCE: ELASTIC_PLATE_1                                                                 
 LARGEST CORRECTION TO DISP.        9.579E-12   AT NODE       1768   DOF  1
   INSTANCE: ELASTIC_PLATE_1                                                                 
          THE FORCE     EQUILIBRIUM RESPONSE WAS LINEAR IN THIS INCREMENT

 AVERAGE HEAT FLUX                  1.892E-03   TIME AVG. HEAT FLUX   2.425E-03
 LARGEST RESIDUAL HEAT FLUX         7.356E-13   AT NODE       2537   DOF 11
   INSTANCE: ELASTIC_PLATE_1                                                                 
 LARGEST INCREMENT OF TEMP.          1.14       AT NODE       2862   DOF 11
   INSTANCE: ELASTIC_PLATE_1                                                                 
 LARGEST CORRECTION TO TEMP.       -6.716E-02   AT NODE       2862   DOF 11
   INSTANCE: ELASTIC_PLATE_1                                                                 
          THE HEAT FLUX EQUILIBRIUM RESPONSE WAS LINEAR IN THIS INCREMENT

 MAXIMUM NON-PRESCRIBED INCREMENT IN TEMPERATURE IS    1.14    

 ITERATION SUMMARY FOR THE INCREMENT:   1 TOTAL ITERATIONS, OF WHICH
   0 ARE SEVERE DISCONTINUITY ITERATIONS AND  1 ARE EQUILIBRIUM ITERATIONS.

 TIME INCREMENT COMPLETED   1.00    ,  FRACTION OF STEP COMPLETED  0.210    
 STEP TIME COMPLETED        21.0    ,  TOTAL TIME COMPLETED         21.0    


  INCREMENT    22 STARTS. ATTEMPT NUMBER  1, TIME INCREMENT   1.00    
 
	UNSYMMETRIC NEW DIRECT SPARSE SOLVER RUNNING ON
 	1 HOST x 1 MPI RANK PER HOST x 2 THREADS PER RANK
        NUMBER OF EQUATIONS:  12864
        NUMBER OF RHS:        1
        NUMBER OF FLOPS:      9.247e+08
        SOLVER ELAPSED TIME:  23ms

               CONVERGENCE CHECKS FOR EQUILIBRIUM ITERATION     1


 AVERAGE FORCE                       8.79       TIME AVG. FORCE        4.60    
 LARGEST SCALED RESIDUAL FORCE     -2.688E-10   AT NODE        929   DOF  1
   INSTANCE: ELASTIC_PLATE_1                                                                 
  CORRESPONDING RESIDUAL FORCE     -2.688E-10
 LARGEST INCREMENT OF DISP.         1.000E-06   AT NODE       2083   DOF  2
   INSTANCE: ELASTIC_PLATE_1                                                                 
 LARGEST CORRECTION TO DISP.        9.578E-12   AT NODE       1768   DOF  1
   INSTANCE: ELASTIC_PLATE_1                                                                 
          THE FORCE     EQUILIBRIUM RESPONSE WAS LINEAR IN THIS INCREMENT

 AVERAGE HEAT FLUX                  1.761E-03   TIME AVG. HEAT FLUX   2.395E-03
 LARGEST RESIDUAL HEAT FLUX         6.957E-13   AT NODE       2537   DOF 11
   INSTANCE: ELASTIC_PLATE_1                                                                 
 LARGEST INCREMENT OF TEMP.          1.08       AT NODE       2856   DOF 11
   INSTANCE: ELASTIC_PLATE_1                                                                 
 LARGEST CORRECTION TO TEMP.       -6.163E-02   AT NODE       2862   DOF 11
   INSTANCE: ELASTIC_PLATE_1                                                                 
          THE HEAT FLUX EQUILIBRIUM RESPONSE WAS LINEAR IN THIS INCREMENT

 MAXIMUM NON-PRESCRIBED INCREMENT IN TEMPERATURE IS    1.08    

 ITERATION SUMMARY FOR THE INCREMENT:   1 TOTAL ITERATIONS, OF WHICH
   0 ARE SEVERE DISCONTINUITY ITERATIONS AND  1 ARE EQUILIBRIUM ITERATIONS.

 TIME INCREMENT COMPLETED   1.00    ,  FRACTION OF STEP COMPLETED  0.220    
 STEP TIME COMPLETED        22.0    ,  TOTAL TIME COMPLETED         22.0    


  INCREMENT    23 STARTS. ATTEMPT NUMBER  1, TIME INCREMENT   1.00    
 
	UNSYMMETRIC NEW DIRECT SPARSE SOLVER RUNNING ON
 	1 HOST x 1 MPI RANK PER HOST x 2 THREADS PER RANK
        NUMBER OF EQUATIONS:  12864
        NUMBER OF RHS:        1
        NUMBER OF FLOPS:      9.247e+08
        SOLVER ELAPSED TIME:  25ms

               CONVERGENCE CHECKS FOR EQUILIBRIUM ITERATION     1


 AVERAGE FORCE                       9.19       TIME AVG. FORCE        4.80    
 LARGEST SCALED RESIDUAL FORCE     -2.688E-10   AT NODE         58   DOF  1
   INSTANCE: ELASTIC_PLATE_1                                                                 
  CORRESPONDING RESIDUAL FORCE     -2.688E-10
 LARGEST INCREMENT OF DISP.         1.000E-06   AT NODE       2083   DOF  2
   INSTANCE: ELASTIC_PLATE_1                                                                 
 LARGEST CORRECTION TO DISP.        9.578E-12   AT NODE       1769   DOF  1
   INSTANCE: ELASTIC_PLATE_1                                                                 
          THE FORCE     EQUILIBRIUM RESPONSE WAS LINEAR IN THIS INCREMENT

 AVERAGE HEAT FLUX                  1.761E-03   TIME AVG. HEAT FLUX   2.367E-03
 LARGEST RESIDUAL HEAT FLUX         6.647E-13   AT NODE       2536   DOF 11
   INSTANCE: ELASTIC_PLATE_1                                                                 
 LARGEST INCREMENT OF TEMP.          1.04       AT NODE       2855   DOF 11
   INSTANCE: ELASTIC_PLATE_1                                                                 
 LARGEST CORRECTION TO TEMP.       -5.666E-02   AT NODE       2856   DOF 11
   INSTANCE: ELASTIC_PLATE_1                                                                 
          THE HEAT FLUX EQUILIBRIUM RESPONSE WAS LINEAR IN THIS INCREMENT

 MAXIMUM NON-PRESCRIBED INCREMENT IN TEMPERATURE IS    1.04    

 ITERATION SUMMARY FOR THE INCREMENT:   1 TOTAL ITERATIONS, OF WHICH
   0 ARE SEVERE DISCONTINUITY ITERATIONS AND  1 ARE EQUILIBRIUM ITERATIONS.

 TIME INCREMENT COMPLETED   1.00    ,  FRACTION OF STEP COMPLETED  0.230    
 STEP TIME COMPLETED        23.0    ,  TOTAL TIME COMPLETED         23.0    


  INCREMENT    24 STARTS. ATTEMPT NUMBER  1, TIME INCREMENT   1.00    
 
	UNSYMMETRIC NEW DIRECT SPARSE SOLVER RUNNING ON
 	1 HOST x 1 MPI RANK PER HOST x 2 THREADS PER RANK
        NUMBER OF EQUATIONS:  12864
        NUMBER OF RHS:        1
        NUMBER OF FLOPS:      9.247e+08
        SOLVER ELAPSED TIME:  23ms

               CONVERGENCE CHECKS FOR EQUILIBRIUM ITERATION     1


 AVERAGE FORCE                       9.59       TIME AVG. FORCE        5.00    
 LARGEST SCALED RESIDUAL FORCE     -2.687E-10   AT NODE         58   DOF  1
   INSTANCE: ELASTIC_PLATE_1                                                                 
  CORRESPONDING RESIDUAL FORCE     -2.687E-10
 LARGEST INCREMENT OF DISP.         1.000E-06   AT NODE       2083   DOF  2
   INSTANCE: ELASTIC_PLATE_1                                                                 
 LARGEST CORRECTION TO DISP.        9.577E-12   AT NODE       1768   DOF  1
   INSTANCE: ELASTIC_PLATE_1                                                                 
          THE FORCE     EQUILIBRIUM RESPONSE WAS LINEAR IN THIS INCREMENT

 AVERAGE HEAT FLUX                  1.761E-03   TIME AVG. HEAT FLUX   2.342E-03
 LARGEST RESIDUAL HEAT FLUX         6.418E-13   AT NODE       2216   DOF 11
   INSTANCE: ELASTIC_PLATE_1                                                                 
 LARGEST INCREMENT OF TEMP.          1.00       AT NODE       2863   DOF 11
   INSTANCE: ELASTIC_PLATE_1                                                                 
 LARGEST CORRECTION TO TEMP.       -5.217E-02   AT NODE       2856   DOF 11
   INSTANCE: ELASTIC_PLATE_1                                                                 
          THE HEAT FLUX EQUILIBRIUM RESPONSE WAS LINEAR IN THIS INCREMENT

 MAXIMUM NON-PRESCRIBED INCREMENT IN TEMPERATURE IS    1.00    

 ITERATION SUMMARY FOR THE INCREMENT:   1 TOTAL ITERATIONS, OF WHICH
   0 ARE SEVERE DISCONTINUITY ITERATIONS AND  1 ARE EQUILIBRIUM ITERATIONS.

 TIME INCREMENT COMPLETED   1.00    ,  FRACTION OF STEP COMPLETED  0.240    
 STEP TIME COMPLETED        24.0    ,  TOTAL TIME COMPLETED         24.0    


  INCREMENT    25 STARTS. ATTEMPT NUMBER  1, TIME INCREMENT   1.00    
 
	UNSYMMETRIC NEW DIRECT SPARSE SOLVER RUNNING ON
 	1 HOST x 1 MPI RANK PER HOST x 2 THREADS PER RANK
        NUMBER OF EQUATIONS:  12864
        NUMBER OF RHS:        1
        NUMBER OF FLOPS:      9.247e+08
        SOLVER ELAPSED TIME:  24ms

               CONVERGENCE CHECKS FOR EQUILIBRIUM ITERATION     1


 AVERAGE FORCE                       9.99       TIME AVG. FORCE        5.20    
 LARGEST SCALED RESIDUAL FORCE     -2.687E-10   AT NODE         58   DOF  1
   INSTANCE: ELASTIC_PLATE_1                                                                 
  CORRESPONDING RESIDUAL FORCE     -2.687E-10
 LARGEST INCREMENT OF DISP.         1.000E-06   AT NODE       2083   DOF  2
   INSTANCE: ELASTIC_PLATE_1                                                                 
 LARGEST CORRECTION TO DISP.        9.577E-12   AT NODE       1769   DOF  1
   INSTANCE: ELASTIC_PLATE_1                                                                 
          THE FORCE     EQUILIBRIUM RESPONSE WAS LINEAR IN THIS INCREMENT

 AVERAGE HEAT FLUX                  1.761E-03   TIME AVG. HEAT FLUX   2.319E-03
 LARGEST RESIDUAL HEAT FLUX         6.197E-13   AT NODE       2216   DOF 11
   INSTANCE: ELASTIC_PLATE_1                                                                 
 LARGEST INCREMENT OF TEMP.         0.968       AT NODE       2863   DOF 11
   INSTANCE: ELASTIC_PLATE_1                                                                 
 LARGEST CORRECTION TO TEMP.       -4.812E-02   AT NODE       2862   DOF 11
   INSTANCE: ELASTIC_PLATE_1                                                                 
          THE HEAT FLUX EQUILIBRIUM RESPONSE WAS LINEAR IN THIS INCREMENT

 MAXIMUM NON-PRESCRIBED INCREMENT IN TEMPERATURE IS   0.968    

 ITERATION SUMMARY FOR THE INCREMENT:   1 TOTAL ITERATIONS, OF WHICH
   0 ARE SEVERE DISCONTINUITY ITERATIONS AND  1 ARE EQUILIBRIUM ITERATIONS.

 TIME INCREMENT COMPLETED   1.00    ,  FRACTION OF STEP COMPLETED  0.250    
 STEP TIME COMPLETED        25.0    ,  TOTAL TIME COMPLETED         25.0    


  INCREMENT    26 STARTS. ATTEMPT NUMBER  1, TIME INCREMENT   1.00    
 
	UNSYMMETRIC NEW DIRECT SPARSE SOLVER RUNNING ON
 	1 HOST x 1 MPI RANK PER HOST x 2 THREADS PER RANK
        NUMBER OF EQUATIONS:  12864
        NUMBER OF RHS:        1
        NUMBER OF FLOPS:      9.247e+08
        SOLVER ELAPSED TIME:  25ms

               CONVERGENCE CHECKS FOR EQUILIBRIUM ITERATION     1


 AVERAGE FORCE                       10.4       TIME AVG. FORCE        5.40    
 LARGEST SCALED RESIDUAL FORCE     -2.686E-10   AT NODE         58   DOF  1
   INSTANCE: ELASTIC_PLATE_1                                                                 
  CORRESPONDING RESIDUAL FORCE     -2.686E-10
 LARGEST INCREMENT OF DISP.         1.000E-06   AT NODE       2083   DOF  2
   INSTANCE: ELASTIC_PLATE_1                                                                 
 LARGEST CORRECTION TO DISP.        9.576E-12   AT NODE       1769   DOF  1
   INSTANCE: ELASTIC_PLATE_1                                                                 
          THE FORCE     EQUILIBRIUM RESPONSE WAS LINEAR IN THIS INCREMENT

 AVERAGE HEAT FLUX                  1.647E-03   TIME AVG. HEAT FLUX   2.293E-03
 LARGEST RESIDUAL HEAT FLUX         5.985E-13   AT NODE       2216   DOF 11
   INSTANCE: ELASTIC_PLATE_1                                                                 
 LARGEST INCREMENT OF TEMP.         0.935       AT NODE       2855   DOF 11
   INSTANCE: ELASTIC_PLATE_1                                                                 
 LARGEST CORRECTION TO TEMP.       -4.447E-02   AT NODE       2856   DOF 11
   INSTANCE: ELASTIC_PLATE_1                                                                 
          THE HEAT FLUX EQUILIBRIUM RESPONSE WAS LINEAR IN THIS INCREMENT

 MAXIMUM NON-PRESCRIBED INCREMENT IN TEMPERATURE IS   0.935    

 ITERATION SUMMARY FOR THE INCREMENT:   1 TOTAL ITERATIONS, OF WHICH
   0 ARE SEVERE DISCONTINUITY ITERATIONS AND  1 ARE EQUILIBRIUM ITERATIONS.

 TIME INCREMENT COMPLETED   1.00    ,  FRACTION OF STEP COMPLETED  0.260    
 STEP TIME COMPLETED        26.0    ,  TOTAL TIME COMPLETED         26.0    


  INCREMENT    27 STARTS. ATTEMPT NUMBER  1, TIME INCREMENT   1.00    
 
	UNSYMMETRIC NEW DIRECT SPARSE SOLVER RUNNING ON
 	1 HOST x 1 MPI RANK PER HOST x 2 THREADS PER RANK
        NUMBER OF EQUATIONS:  12864
        NUMBER OF RHS:        1
        NUMBER OF FLOPS:      9.247e+08
        SOLVER ELAPSED TIME:  25ms

               CONVERGENCE CHECKS FOR EQUILIBRIUM ITERATION     1


 AVERAGE FORCE                       10.8       TIME AVG. FORCE        5.60    
 LARGEST SCALED RESIDUAL FORCE     -2.686E-10   AT NODE        929   DOF  1
   INSTANCE: ELASTIC_PLATE_1                                                                 
  CORRESPONDING RESIDUAL FORCE     -2.686E-10
 LARGEST INCREMENT OF DISP.         1.000E-06   AT NODE       2083   DOF  2
   INSTANCE: ELASTIC_PLATE_1                                                                 
 LARGEST CORRECTION TO DISP.        9.576E-12   AT NODE       1768   DOF  1
   INSTANCE: ELASTIC_PLATE_1                                                                 
          THE FORCE     EQUILIBRIUM RESPONSE WAS LINEAR IN THIS INCREMENT

 AVERAGE HEAT FLUX                  1.647E-03   TIME AVG. HEAT FLUX   2.269E-03
 LARGEST RESIDUAL HEAT FLUX         5.781E-13   AT NODE       2216   DOF 11
   INSTANCE: ELASTIC_PLATE_1                                                                 
 LARGEST INCREMENT OF TEMP.         0.904       AT NODE       2855   DOF 11
   INSTANCE: ELASTIC_PLATE_1                                                                 
 LARGEST CORRECTION TO TEMP.       -4.117E-02   AT NODE       2862   DOF 11
   INSTANCE: ELASTIC_PLATE_1                                                                 
          THE HEAT FLUX EQUILIBRIUM RESPONSE WAS LINEAR IN THIS INCREMENT

 MAXIMUM NON-PRESCRIBED INCREMENT IN TEMPERATURE IS   0.904    

 ITERATION SUMMARY FOR THE INCREMENT:   1 TOTAL ITERATIONS, OF WHICH
   0 ARE SEVERE DISCONTINUITY ITERATIONS AND  1 ARE EQUILIBRIUM ITERATIONS.

 TIME INCREMENT COMPLETED   1.00    ,  FRACTION OF STEP COMPLETED  0.270    
 STEP TIME COMPLETED        27.0    ,  TOTAL TIME COMPLETED         27.0    


  INCREMENT    28 STARTS. ATTEMPT NUMBER  1, TIME INCREMENT   1.00    
 
	UNSYMMETRIC NEW DIRECT SPARSE SOLVER RUNNING ON
 	1 HOST x 1 MPI RANK PER HOST x 2 THREADS PER RANK
        NUMBER OF EQUATIONS:  12864
        NUMBER OF RHS:        1
        NUMBER OF FLOPS:      9.247e+08
        SOLVER ELAPSED TIME:  25ms

               CONVERGENCE CHECKS FOR EQUILIBRIUM ITERATION     1


 AVERAGE FORCE                       11.2       TIME AVG. FORCE        5.80    
 LARGEST SCALED RESIDUAL FORCE     -2.685E-10   AT NODE        929   DOF  1
   INSTANCE: ELASTIC_PLATE_1                                                                 
  CORRESPONDING RESIDUAL FORCE     -2.685E-10
 LARGEST INCREMENT OF DISP.         1.000E-06   AT NODE       2083   DOF  2
   INSTANCE: ELASTIC_PLATE_1                                                                 
 LARGEST CORRECTION TO DISP.        9.575E-12   AT NODE       1769   DOF  1
   INSTANCE: ELASTIC_PLATE_1                                                                 
          THE FORCE     EQUILIBRIUM RESPONSE WAS LINEAR IN THIS INCREMENT

 AVERAGE HEAT FLUX                  1.647E-03   TIME AVG. HEAT FLUX   2.247E-03
 LARGEST RESIDUAL HEAT FLUX         5.586E-13   AT NODE       2536   DOF 11
   INSTANCE: ELASTIC_PLATE_1                                                                 
 LARGEST INCREMENT OF TEMP.         0.874       AT NODE       2855   DOF 11
   INSTANCE: ELASTIC_PLATE_1                                                                 
 LARGEST CORRECTION TO TEMP.       -3.818E-02   AT NODE       2862   DOF 11
   INSTANCE: ELASTIC_PLATE_1                                                                 
          THE HEAT FLUX EQUILIBRIUM RESPONSE WAS LINEAR IN THIS INCREMENT

 MAXIMUM NON-PRESCRIBED INCREMENT IN TEMPERATURE IS   0.874    

 ITERATION SUMMARY FOR THE INCREMENT:   1 TOTAL ITERATIONS, OF WHICH
   0 ARE SEVERE DISCONTINUITY ITERATIONS AND  1 ARE EQUILIBRIUM ITERATIONS.

 TIME INCREMENT COMPLETED   1.00    ,  FRACTION OF STEP COMPLETED  0.280    
 STEP TIME COMPLETED        28.0    ,  TOTAL TIME COMPLETED         28.0    


  INCREMENT    29 STARTS. ATTEMPT NUMBER  1, TIME INCREMENT   1.00    
 
	UNSYMMETRIC NEW DIRECT SPARSE SOLVER RUNNING ON
 	1 HOST x 1 MPI RANK PER HOST x 2 THREADS PER RANK
        NUMBER OF EQUATIONS:  12864
        NUMBER OF RHS:        1
        NUMBER OF FLOPS:      9.247e+08
        SOLVER ELAPSED TIME:  23ms

               CONVERGENCE CHECKS FOR EQUILIBRIUM ITERATION     1


 AVERAGE FORCE                       11.6       TIME AVG. FORCE        6.00    
 LARGEST SCALED RESIDUAL FORCE     -2.685E-10   AT NODE         58   DOF  1
   INSTANCE: ELASTIC_PLATE_1                                                                 
  CORRESPONDING RESIDUAL FORCE     -2.685E-10
 LARGEST INCREMENT OF DISP.         1.000E-06   AT NODE       2083   DOF  2
   INSTANCE: ELASTIC_PLATE_1                                                                 
 LARGEST CORRECTION TO DISP.        9.575E-12   AT NODE       1769   DOF  1
   INSTANCE: ELASTIC_PLATE_1                                                                 
          THE FORCE     EQUILIBRIUM RESPONSE WAS LINEAR IN THIS INCREMENT

 AVERAGE HEAT FLUX                  1.647E-03   TIME AVG. HEAT FLUX   2.226E-03
 LARGEST RESIDUAL HEAT FLUX         5.401E-13   AT NODE       2216   DOF 11
   INSTANCE: ELASTIC_PLATE_1                                                                 
 LARGEST INCREMENT OF TEMP.         0.845       AT NODE       2863   DOF 11
   INSTANCE: ELASTIC_PLATE_1                                                                 
 LARGEST CORRECTION TO TEMP.       -3.547E-02   AT NODE       2856   DOF 11
   INSTANCE: ELASTIC_PLATE_1                                                                 
          THE HEAT FLUX EQUILIBRIUM RESPONSE WAS LINEAR IN THIS INCREMENT

 MAXIMUM NON-PRESCRIBED INCREMENT IN TEMPERATURE IS   0.845    

 ITERATION SUMMARY FOR THE INCREMENT:   1 TOTAL ITERATIONS, OF WHICH
   0 ARE SEVERE DISCONTINUITY ITERATIONS AND  1 ARE EQUILIBRIUM ITERATIONS.

 TIME INCREMENT COMPLETED   1.00    ,  FRACTION OF STEP COMPLETED  0.290    
 STEP TIME COMPLETED        29.0    ,  TOTAL TIME COMPLETED         29.0    


  INCREMENT    30 STARTS. ATTEMPT NUMBER  1, TIME INCREMENT   1.00    
 
	UNSYMMETRIC NEW DIRECT SPARSE SOLVER RUNNING ON
 	1 HOST x 1 MPI RANK PER HOST x 2 THREADS PER RANK
        NUMBER OF EQUATIONS:  12864
        NUMBER OF RHS:        1
        NUMBER OF FLOPS:      9.247e+08
        SOLVER ELAPSED TIME:  24ms

               CONVERGENCE CHECKS FOR EQUILIBRIUM ITERATION     1


 AVERAGE FORCE                       12.0       TIME AVG. FORCE        6.20    
 LARGEST SCALED RESIDUAL FORCE     -2.684E-10   AT NODE         58   DOF  1
   INSTANCE: ELASTIC_PLATE_1                                                                 
  CORRESPONDING RESIDUAL FORCE     -2.684E-10
 LARGEST INCREMENT OF DISP.         1.000E-06   AT NODE       2083   DOF  2
   INSTANCE: ELASTIC_PLATE_1                                                                 
 LARGEST CORRECTION TO DISP.        9.575E-12   AT NODE       1768   DOF  1
   INSTANCE: ELASTIC_PLATE_1                                                                 
          THE FORCE     EQUILIBRIUM RESPONSE WAS LINEAR IN THIS INCREMENT

 AVERAGE HEAT FLUX                  1.547E-03   TIME AVG. HEAT FLUX   2.203E-03
 LARGEST RESIDUAL HEAT FLUX         5.222E-13   AT NODE       2536   DOF 11
   INSTANCE: ELASTIC_PLATE_1                                                                 
 LARGEST INCREMENT OF TEMP.         0.817       AT NODE       2863   DOF 11
   INSTANCE: ELASTIC_PLATE_1                                                                 
 LARGEST CORRECTION TO TEMP.       -3.301E-02   AT NODE       2856   DOF 11
   INSTANCE: ELASTIC_PLATE_1                                                                 
          THE HEAT FLUX EQUILIBRIUM RESPONSE WAS LINEAR IN THIS INCREMENT

 MAXIMUM NON-PRESCRIBED INCREMENT IN TEMPERATURE IS   0.817    

 ITERATION SUMMARY FOR THE INCREMENT:   1 TOTAL ITERATIONS, OF WHICH
   0 ARE SEVERE DISCONTINUITY ITERATIONS AND  1 ARE EQUILIBRIUM ITERATIONS.

 TIME INCREMENT COMPLETED   1.00    ,  FRACTION OF STEP COMPLETED  0.300    
 STEP TIME COMPLETED        30.0    ,  TOTAL TIME COMPLETED         30.0    


  INCREMENT    31 STARTS. ATTEMPT NUMBER  1, TIME INCREMENT   1.00    
 
	UNSYMMETRIC NEW DIRECT SPARSE SOLVER RUNNING ON
 	1 HOST x 1 MPI RANK PER HOST x 2 THREADS PER RANK
        NUMBER OF EQUATIONS:  12864
        NUMBER OF RHS:        1
        NUMBER OF FLOPS:      9.247e+08
        SOLVER ELAPSED TIME:  25ms

               CONVERGENCE CHECKS FOR EQUILIBRIUM ITERATION     1


 AVERAGE FORCE                       12.4       TIME AVG. FORCE        6.40    
 LARGEST SCALED RESIDUAL FORCE     -2.683E-10   AT NODE        929   DOF  1
   INSTANCE: ELASTIC_PLATE_1                                                                 
  CORRESPONDING RESIDUAL FORCE     -2.683E-10
 LARGEST INCREMENT OF DISP.         1.000E-06   AT NODE       2083   DOF  2
   INSTANCE: ELASTIC_PLATE_1                                                                 
 LARGEST CORRECTION TO DISP.        9.574E-12   AT NODE       1768   DOF  1
   INSTANCE: ELASTIC_PLATE_1                                                                 
          THE FORCE     EQUILIBRIUM RESPONSE WAS LINEAR IN THIS INCREMENT

 AVERAGE HEAT FLUX                  1.547E-03   TIME AVG. HEAT FLUX   2.182E-03
 LARGEST RESIDUAL HEAT FLUX         5.053E-13   AT NODE       2216   DOF 11
   INSTANCE: ELASTIC_PLATE_1                                                                 
 LARGEST INCREMENT OF TEMP.         0.791       AT NODE       2855   DOF 11
   INSTANCE: ELASTIC_PLATE_1                                                                 
 LARGEST CORRECTION TO TEMP.       -3.077E-02   AT NODE       2856   DOF 11
   INSTANCE: ELASTIC_PLATE_1                                                                 
          THE HEAT FLUX EQUILIBRIUM RESPONSE WAS LINEAR IN THIS INCREMENT

 MAXIMUM NON-PRESCRIBED INCREMENT IN TEMPERATURE IS   0.791    

 ITERATION SUMMARY FOR THE INCREMENT:   1 TOTAL ITERATIONS, OF WHICH
   0 ARE SEVERE DISCONTINUITY ITERATIONS AND  1 ARE EQUILIBRIUM ITERATIONS.

 TIME INCREMENT COMPLETED   1.00    ,  FRACTION OF STEP COMPLETED  0.310    
 STEP TIME COMPLETED        31.0    ,  TOTAL TIME COMPLETED         31.0    


  INCREMENT    32 STARTS. ATTEMPT NUMBER  1, TIME INCREMENT   1.00    
 
	UNSYMMETRIC NEW DIRECT SPARSE SOLVER RUNNING ON
 	1 HOST x 1 MPI RANK PER HOST x 2 THREADS PER RANK
        NUMBER OF EQUATIONS:  12864
        NUMBER OF RHS:        1
        NUMBER OF FLOPS:      9.247e+08
        SOLVER ELAPSED TIME:  29ms

               CONVERGENCE CHECKS FOR EQUILIBRIUM ITERATION     1


 AVERAGE FORCE                       12.8       TIME AVG. FORCE        6.60    
 LARGEST SCALED RESIDUAL FORCE     -2.683E-10   AT NODE         58   DOF  1
   INSTANCE: ELASTIC_PLATE_1                                                                 
  CORRESPONDING RESIDUAL FORCE     -2.683E-10
 LARGEST INCREMENT OF DISP.         1.000E-06   AT NODE       2083   DOF  2
   INSTANCE: ELASTIC_PLATE_1                                                                 
 LARGEST CORRECTION TO DISP.        9.574E-12   AT NODE       1769   DOF  1
   INSTANCE: ELASTIC_PLATE_1                                                                 
          THE FORCE     EQUILIBRIUM RESPONSE WAS LINEAR IN THIS INCREMENT

 AVERAGE HEAT FLUX                  1.547E-03   TIME AVG. HEAT FLUX   2.162E-03
 LARGEST RESIDUAL HEAT FLUX         4.890E-13   AT NODE       2216   DOF 11
   INSTANCE: ELASTIC_PLATE_1                                                                 
 LARGEST INCREMENT OF TEMP.         0.766       AT NODE       2863   DOF 11
   INSTANCE: ELASTIC_PLATE_1                                                                 
 LARGEST CORRECTION TO TEMP.       -2.873E-02   AT NODE       2862   DOF 11
   INSTANCE: ELASTIC_PLATE_1                                                                 
          THE HEAT FLUX EQUILIBRIUM RESPONSE WAS LINEAR IN THIS INCREMENT

 MAXIMUM NON-PRESCRIBED INCREMENT IN TEMPERATURE IS   0.766    

 ITERATION SUMMARY FOR THE INCREMENT:   1 TOTAL ITERATIONS, OF WHICH
   0 ARE SEVERE DISCONTINUITY ITERATIONS AND  1 ARE EQUILIBRIUM ITERATIONS.

 TIME INCREMENT COMPLETED   1.00    ,  FRACTION OF STEP COMPLETED  0.320    
 STEP TIME COMPLETED        32.0    ,  TOTAL TIME COMPLETED         32.0    


  INCREMENT    33 STARTS. ATTEMPT NUMBER  1, TIME INCREMENT   1.00    
 
	UNSYMMETRIC NEW DIRECT SPARSE SOLVER RUNNING ON
 	1 HOST x 1 MPI RANK PER HOST x 2 THREADS PER RANK
        NUMBER OF EQUATIONS:  12864
        NUMBER OF RHS:        1
        NUMBER OF FLOPS:      9.247e+08
        SOLVER ELAPSED TIME:  24ms

               CONVERGENCE CHECKS FOR EQUILIBRIUM ITERATION     1


 AVERAGE FORCE                       13.2       TIME AVG. FORCE        6.80    
 LARGEST SCALED RESIDUAL FORCE     -2.682E-10   AT NODE        929   DOF  1
   INSTANCE: ELASTIC_PLATE_1                                                                 
  CORRESPONDING RESIDUAL FORCE     -2.682E-10
 LARGEST INCREMENT OF DISP.         1.000E-06   AT NODE       2083   DOF  2
   INSTANCE: ELASTIC_PLATE_1                                                                 
 LARGEST CORRECTION TO DISP.        9.573E-12   AT NODE       1768   DOF  1
   INSTANCE: ELASTIC_PLATE_1                                                                 
          THE FORCE     EQUILIBRIUM RESPONSE WAS LINEAR IN THIS INCREMENT

 AVERAGE HEAT FLUX                  1.547E-03   TIME AVG. HEAT FLUX   2.144E-03
 LARGEST RESIDUAL HEAT FLUX         4.735E-13   AT NODE       2536   DOF 11
   INSTANCE: ELASTIC_PLATE_1                                                                 
 LARGEST INCREMENT OF TEMP.         0.742       AT NODE       2855   DOF 11
   INSTANCE: ELASTIC_PLATE_1                                                                 
 LARGEST CORRECTION TO TEMP.       -2.687E-02   AT NODE       2856   DOF 11
   INSTANCE: ELASTIC_PLATE_1                                                                 
          THE HEAT FLUX EQUILIBRIUM RESPONSE WAS LINEAR IN THIS INCREMENT

 MAXIMUM NON-PRESCRIBED INCREMENT IN TEMPERATURE IS   0.742    

 ITERATION SUMMARY FOR THE INCREMENT:   1 TOTAL ITERATIONS, OF WHICH
   0 ARE SEVERE DISCONTINUITY ITERATIONS AND  1 ARE EQUILIBRIUM ITERATIONS.

 TIME INCREMENT COMPLETED   1.00    ,  FRACTION OF STEP COMPLETED  0.330    
 STEP TIME COMPLETED        33.0    ,  TOTAL TIME COMPLETED         33.0    


  INCREMENT    34 STARTS. ATTEMPT NUMBER  1, TIME INCREMENT   1.00    
 
	UNSYMMETRIC NEW DIRECT SPARSE SOLVER RUNNING ON
 	1 HOST x 1 MPI RANK PER HOST x 2 THREADS PER RANK
        NUMBER OF EQUATIONS:  12864
        NUMBER OF RHS:        1
        NUMBER OF FLOPS:      9.247e+08
        SOLVER ELAPSED TIME:  31ms

               CONVERGENCE CHECKS FOR EQUILIBRIUM ITERATION     1


 AVERAGE FORCE                       13.6       TIME AVG. FORCE        7.00    
 LARGEST SCALED RESIDUAL FORCE     -2.682E-10   AT NODE         58   DOF  1
   INSTANCE: ELASTIC_PLATE_1                                                                 
  CORRESPONDING RESIDUAL FORCE     -2.682E-10
 LARGEST INCREMENT OF DISP.         1.000E-06   AT NODE       2083   DOF  2
[...]
 LARGEST SCALED RESIDUAL FORCE     -2.651E-10   AT NODE         58   DOF  1
   INSTANCE: ELASTIC_PLATE_1                                                                 
  CORRESPONDING RESIDUAL FORCE     -2.651E-10
 LARGEST INCREMENT OF DISP.         1.000E-06   AT NODE       2083   DOF  2
   INSTANCE: ELASTIC_PLATE_1                                                                 
 LARGEST CORRECTION TO DISP.        9.547E-12   AT NODE       1769   DOF  1
   INSTANCE: ELASTIC_PLATE_1                                                                 
          THE FORCE     EQUILIBRIUM RESPONSE WAS LINEAR IN THIS INCREMENT

 AVERAGE HEAT FLUX                  8.862E-04   TIME AVG. HEAT FLUX   1.514E-03
 LARGEST RESIDUAL HEAT FLUX         1.612E-13   AT NODE       2214   DOF 11
   INSTANCE: ELASTIC_PLATE_1                                                                 
 LARGEST INCREMENT OF TEMP.         0.263       AT NODE       2865   DOF 11
   INSTANCE: ELASTIC_PLATE_1                                                                 
 LARGEST CORRECTION TO TEMP.       -3.336E-03   AT NODE       2854   DOF 11
   INSTANCE: ELASTIC_PLATE_1                                                                 
          THE HEAT FLUX EQUILIBRIUM RESPONSE WAS LINEAR IN THIS INCREMENT

 MAXIMUM NON-PRESCRIBED INCREMENT IN TEMPERATURE IS   0.263    

 ITERATION SUMMARY FOR THE INCREMENT:   1 TOTAL ITERATIONS, OF WHICH
   0 ARE SEVERE DISCONTINUITY ITERATIONS AND  1 ARE EQUILIBRIUM ITERATIONS.

 TIME INCREMENT COMPLETED   1.00    ,  FRACTION OF STEP COMPLETED  0.920    
 STEP TIME COMPLETED        92.0    ,  TOTAL TIME COMPLETED         92.0    


  INCREMENT    93 STARTS. ATTEMPT NUMBER  1, TIME INCREMENT   1.00    
 
	UNSYMMETRIC NEW DIRECT SPARSE SOLVER RUNNING ON
 	1 HOST x 1 MPI RANK PER HOST x 2 THREADS PER RANK
        NUMBER OF EQUATIONS:  12864
        NUMBER OF RHS:        1
        NUMBER OF FLOPS:      9.247e+08
        SOLVER ELAPSED TIME:  24ms

               CONVERGENCE CHECKS FOR EQUILIBRIUM ITERATION     1


 AVERAGE FORCE                       37.2       TIME AVG. FORCE        18.8    
 LARGEST SCALED RESIDUAL FORCE     -2.650E-10   AT NODE         58   DOF  1
   INSTANCE: ELASTIC_PLATE_1                                                                 
  CORRESPONDING RESIDUAL FORCE     -2.650E-10
 LARGEST INCREMENT OF DISP.         1.000E-06   AT NODE       2083   DOF  2
   INSTANCE: ELASTIC_PLATE_1                                                                 
 LARGEST CORRECTION TO DISP.        9.547E-12   AT NODE       1768   DOF  1
   INSTANCE: ELASTIC_PLATE_1                                                                 
          THE FORCE     EQUILIBRIUM RESPONSE WAS LINEAR IN THIS INCREMENT

 AVERAGE HEAT FLUX                  8.797E-04   TIME AVG. HEAT FLUX   1.508E-03
 LARGEST RESIDUAL HEAT FLUX         1.594E-13   AT NODE       2214   DOF 11
   INSTANCE: ELASTIC_PLATE_1                                                                 
 LARGEST INCREMENT OF TEMP.         0.260       AT NODE       2853   DOF 11
   INSTANCE: ELASTIC_PLATE_1                                                                 
 LARGEST CORRECTION TO TEMP.       -3.264E-03   AT NODE       2864   DOF 11
   INSTANCE: ELASTIC_PLATE_1                                                                 
          THE HEAT FLUX EQUILIBRIUM RESPONSE WAS LINEAR IN THIS INCREMENT

 MAXIMUM NON-PRESCRIBED INCREMENT IN TEMPERATURE IS   0.260    

 ITERATION SUMMARY FOR THE INCREMENT:   1 TOTAL ITERATIONS, OF WHICH
   0 ARE SEVERE DISCONTINUITY ITERATIONS AND  1 ARE EQUILIBRIUM ITERATIONS.

 TIME INCREMENT COMPLETED   1.00    ,  FRACTION OF STEP COMPLETED  0.930    
 STEP TIME COMPLETED        93.0    ,  TOTAL TIME COMPLETED         93.0    


  INCREMENT    94 STARTS. ATTEMPT NUMBER  1, TIME INCREMENT   1.00    
 
	UNSYMMETRIC NEW DIRECT SPARSE SOLVER RUNNING ON
 	1 HOST x 1 MPI RANK PER HOST x 2 THREADS PER RANK
        NUMBER OF EQUATIONS:  12864
        NUMBER OF RHS:        1
        NUMBER OF FLOPS:      9.247e+08
        SOLVER ELAPSED TIME:  25ms

               CONVERGENCE CHECKS FOR EQUILIBRIUM ITERATION     1


 AVERAGE FORCE                       37.6       TIME AVG. FORCE        19.0    
 LARGEST SCALED RESIDUAL FORCE     -2.650E-10   AT NODE        929   DOF  1
   INSTANCE: ELASTIC_PLATE_1                                                                 
  CORRESPONDING RESIDUAL FORCE     -2.650E-10
 LARGEST INCREMENT OF DISP.         1.000E-06   AT NODE       2083   DOF  2
   INSTANCE: ELASTIC_PLATE_1                                                                 
 LARGEST CORRECTION TO DISP.        9.546E-12   AT NODE       1769   DOF  1
   INSTANCE: ELASTIC_PLATE_1                                                                 
          THE FORCE     EQUILIBRIUM RESPONSE WAS LINEAR IN THIS INCREMENT

 AVERAGE HEAT FLUX                  8.724E-04   TIME AVG. HEAT FLUX   1.501E-03
 LARGEST RESIDUAL HEAT FLUX         1.574E-13   AT NODE       2534   DOF 11
   INSTANCE: ELASTIC_PLATE_1                                                                 
 LARGEST INCREMENT OF TEMP.         0.257       AT NODE       2865   DOF 11
   INSTANCE: ELASTIC_PLATE_1                                                                 
 LARGEST CORRECTION TO TEMP.       -3.195E-03   AT NODE       2864   DOF 11
   INSTANCE: ELASTIC_PLATE_1                                                                 
          THE HEAT FLUX EQUILIBRIUM RESPONSE WAS LINEAR IN THIS INCREMENT

 MAXIMUM NON-PRESCRIBED INCREMENT IN TEMPERATURE IS   0.257    

 ITERATION SUMMARY FOR THE INCREMENT:   1 TOTAL ITERATIONS, OF WHICH
   0 ARE SEVERE DISCONTINUITY ITERATIONS AND  1 ARE EQUILIBRIUM ITERATIONS.

 TIME INCREMENT COMPLETED   1.00    ,  FRACTION OF STEP COMPLETED  0.940    
 STEP TIME COMPLETED        94.0    ,  TOTAL TIME COMPLETED         94.0    


  INCREMENT    95 STARTS. ATTEMPT NUMBER  1, TIME INCREMENT   1.00    
 
	UNSYMMETRIC NEW DIRECT SPARSE SOLVER RUNNING ON
 	1 HOST x 1 MPI RANK PER HOST x 2 THREADS PER RANK
        NUMBER OF EQUATIONS:  12864
        NUMBER OF RHS:        1
        NUMBER OF FLOPS:      9.247e+08
        SOLVER ELAPSED TIME:  23ms

               CONVERGENCE CHECKS FOR EQUILIBRIUM ITERATION     1


 AVERAGE FORCE                       37.9       TIME AVG. FORCE        19.2    
 LARGEST SCALED RESIDUAL FORCE     -2.650E-10   AT NODE         58   DOF  1
   INSTANCE: ELASTIC_PLATE_1                                                                 
  CORRESPONDING RESIDUAL FORCE     -2.650E-10
 LARGEST INCREMENT OF DISP.         1.000E-06   AT NODE       2083   DOF  2
   INSTANCE: ELASTIC_PLATE_1                                                                 
 LARGEST CORRECTION TO DISP.        9.546E-12   AT NODE       1768   DOF  1
   INSTANCE: ELASTIC_PLATE_1                                                                 
          THE FORCE     EQUILIBRIUM RESPONSE WAS LINEAR IN THIS INCREMENT

 AVERAGE HEAT FLUX                  8.664E-04   TIME AVG. HEAT FLUX   1.494E-03
 LARGEST RESIDUAL HEAT FLUX         1.556E-13   AT NODE       2214   DOF 11
   INSTANCE: ELASTIC_PLATE_1                                                                 
 LARGEST INCREMENT OF TEMP.         0.254       AT NODE       2865   DOF 11
   INSTANCE: ELASTIC_PLATE_1                                                                 
 LARGEST CORRECTION TO TEMP.       -3.128E-03   AT NODE       2854   DOF 11
   INSTANCE: ELASTIC_PLATE_1                                                                 
          THE HEAT FLUX EQUILIBRIUM RESPONSE WAS LINEAR IN THIS INCREMENT

 MAXIMUM NON-PRESCRIBED INCREMENT IN TEMPERATURE IS   0.254    

 ITERATION SUMMARY FOR THE INCREMENT:   1 TOTAL ITERATIONS, OF WHICH
   0 ARE SEVERE DISCONTINUITY ITERATIONS AND  1 ARE EQUILIBRIUM ITERATIONS.

 TIME INCREMENT COMPLETED   1.00    ,  FRACTION OF STEP COMPLETED  0.950    
 STEP TIME COMPLETED        95.0    ,  TOTAL TIME COMPLETED         95.0    


  INCREMENT    96 STARTS. ATTEMPT NUMBER  1, TIME INCREMENT   1.00    
 
	UNSYMMETRIC NEW DIRECT SPARSE SOLVER RUNNING ON
 	1 HOST x 1 MPI RANK PER HOST x 2 THREADS PER RANK
        NUMBER OF EQUATIONS:  12864
        NUMBER OF RHS:        1
        NUMBER OF FLOPS:      9.247e+08
        SOLVER ELAPSED TIME:  24ms

               CONVERGENCE CHECKS FOR EQUILIBRIUM ITERATION     1


 AVERAGE FORCE                       38.3       TIME AVG. FORCE        19.4    
 LARGEST SCALED RESIDUAL FORCE     -2.649E-10   AT NODE         58   DOF  1
   INSTANCE: ELASTIC_PLATE_1                                                                 
  CORRESPONDING RESIDUAL FORCE     -2.649E-10
 LARGEST INCREMENT OF DISP.         1.000E-06   AT NODE       2083   DOF  2
   INSTANCE: ELASTIC_PLATE_1                                                                 
 LARGEST CORRECTION TO DISP.        9.545E-12   AT NODE       1769   DOF  1
   INSTANCE: ELASTIC_PLATE_1                                                                 
          THE FORCE     EQUILIBRIUM RESPONSE WAS LINEAR IN THIS INCREMENT

 AVERAGE HEAT FLUX                  8.602E-04   TIME AVG. HEAT FLUX   1.488E-03
 LARGEST RESIDUAL HEAT FLUX         1.538E-13   AT NODE       2534   DOF 11
   INSTANCE: ELASTIC_PLATE_1                                                                 
 LARGEST INCREMENT OF TEMP.         0.251       AT NODE       2865   DOF 11
   INSTANCE: ELASTIC_PLATE_1                                                                 
 LARGEST CORRECTION TO TEMP.       -3.062E-03   AT NODE       2864   DOF 11
   INSTANCE: ELASTIC_PLATE_1                                                                 
          THE HEAT FLUX EQUILIBRIUM RESPONSE WAS LINEAR IN THIS INCREMENT

 MAXIMUM NON-PRESCRIBED INCREMENT IN TEMPERATURE IS   0.251    

 ITERATION SUMMARY FOR THE INCREMENT:   1 TOTAL ITERATIONS, OF WHICH
   0 ARE SEVERE DISCONTINUITY ITERATIONS AND  1 ARE EQUILIBRIUM ITERATIONS.

 TIME INCREMENT COMPLETED   1.00    ,  FRACTION OF STEP COMPLETED  0.960    
 STEP TIME COMPLETED        96.0    ,  TOTAL TIME COMPLETED         96.0    


  INCREMENT    97 STARTS. ATTEMPT NUMBER  1, TIME INCREMENT   1.00    
 
	UNSYMMETRIC NEW DIRECT SPARSE SOLVER RUNNING ON
 	1 HOST x 1 MPI RANK PER HOST x 2 THREADS PER RANK
        NUMBER OF EQUATIONS:  12864
        NUMBER OF RHS:        1
        NUMBER OF FLOPS:      9.247e+08
        SOLVER ELAPSED TIME:  26ms

               CONVERGENCE CHECKS FOR EQUILIBRIUM ITERATION     1


 AVERAGE FORCE                       38.7       TIME AVG. FORCE        19.6    
 LARGEST SCALED RESIDUAL FORCE     -2.648E-10   AT NODE        929   DOF  1
   INSTANCE: ELASTIC_PLATE_1                                                                 
  CORRESPONDING RESIDUAL FORCE     -2.648E-10
 LARGEST INCREMENT OF DISP.         1.000E-06   AT NODE       2083   DOF  2
   INSTANCE: ELASTIC_PLATE_1                                                                 
 LARGEST CORRECTION TO DISP.        9.545E-12   AT NODE       1768   DOF  1
   INSTANCE: ELASTIC_PLATE_1                                                                 
          THE FORCE     EQUILIBRIUM RESPONSE WAS LINEAR IN THIS INCREMENT

 AVERAGE HEAT FLUX                  8.538E-04   TIME AVG. HEAT FLUX   1.481E-03
 LARGEST RESIDUAL HEAT FLUX         1.520E-13   AT NODE       2214   DOF 11
   INSTANCE: ELASTIC_PLATE_1                                                                 
 LARGEST INCREMENT OF TEMP.         0.249       AT NODE       2853   DOF 11
   INSTANCE: ELASTIC_PLATE_1                                                                 
 LARGEST CORRECTION TO TEMP.       -2.999E-03   AT NODE       2854   DOF 11
   INSTANCE: ELASTIC_PLATE_1                                                                 
          THE HEAT FLUX EQUILIBRIUM RESPONSE WAS LINEAR IN THIS INCREMENT

 MAXIMUM NON-PRESCRIBED INCREMENT IN TEMPERATURE IS   0.249    

 ITERATION SUMMARY FOR THE INCREMENT:   1 TOTAL ITERATIONS, OF WHICH
   0 ARE SEVERE DISCONTINUITY ITERATIONS AND  1 ARE EQUILIBRIUM ITERATIONS.

 TIME INCREMENT COMPLETED   1.00    ,  FRACTION OF STEP COMPLETED  0.970    
 STEP TIME COMPLETED        97.0    ,  TOTAL TIME COMPLETED         97.0    


  INCREMENT    98 STARTS. ATTEMPT NUMBER  1, TIME INCREMENT   1.00    
 
	UNSYMMETRIC NEW DIRECT SPARSE SOLVER RUNNING ON
 	1 HOST x 1 MPI RANK PER HOST x 2 THREADS PER RANK
        NUMBER OF EQUATIONS:  12864
        NUMBER OF RHS:        1
        NUMBER OF FLOPS:      9.247e+08
        SOLVER ELAPSED TIME:  24ms

               CONVERGENCE CHECKS FOR EQUILIBRIUM ITERATION     1


 AVERAGE FORCE                       39.1       TIME AVG. FORCE        19.8    
 LARGEST SCALED RESIDUAL FORCE     -2.648E-10   AT NODE         58   DOF  1
   INSTANCE: ELASTIC_PLATE_1                                                                 
  CORRESPONDING RESIDUAL FORCE     -2.648E-10
 LARGEST INCREMENT OF DISP.         1.000E-06   AT NODE       2083   DOF  2
   INSTANCE: ELASTIC_PLATE_1                                                                 
 LARGEST CORRECTION TO DISP.        9.545E-12   AT NODE       1768   DOF  1
   INSTANCE: ELASTIC_PLATE_1                                                                 
          THE FORCE     EQUILIBRIUM RESPONSE WAS LINEAR IN THIS INCREMENT

 AVERAGE HEAT FLUX                  8.459E-04   TIME AVG. HEAT FLUX   1.475E-03
 LARGEST RESIDUAL HEAT FLUX         1.502E-13   AT NODE       2214   DOF 11
   INSTANCE: ELASTIC_PLATE_1                                                                 
 LARGEST INCREMENT OF TEMP.         0.246       AT NODE       2852   DOF 11
   INSTANCE: ELASTIC_PLATE_1                                                                 
 LARGEST CORRECTION TO TEMP.       -2.937E-03   AT NODE       2864   DOF 11
   INSTANCE: ELASTIC_PLATE_1                                                                 
          THE HEAT FLUX EQUILIBRIUM RESPONSE WAS LINEAR IN THIS INCREMENT

 MAXIMUM NON-PRESCRIBED INCREMENT IN TEMPERATURE IS   0.246    

 ITERATION SUMMARY FOR THE INCREMENT:   1 TOTAL ITERATIONS, OF WHICH
   0 ARE SEVERE DISCONTINUITY ITERATIONS AND  1 ARE EQUILIBRIUM ITERATIONS.

 TIME INCREMENT COMPLETED   1.00    ,  FRACTION OF STEP COMPLETED  0.980    
 STEP TIME COMPLETED        98.0    ,  TOTAL TIME COMPLETED         98.0    


  INCREMENT    99 STARTS. ATTEMPT NUMBER  1, TIME INCREMENT   1.00    
 
	UNSYMMETRIC NEW DIRECT SPARSE SOLVER RUNNING ON
 	1 HOST x 1 MPI RANK PER HOST x 2 THREADS PER RANK
        NUMBER OF EQUATIONS:  12864
        NUMBER OF RHS:        1
        NUMBER OF FLOPS:      9.247e+08
        SOLVER ELAPSED TIME:  25ms

               CONVERGENCE CHECKS FOR EQUILIBRIUM ITERATION     1


 AVERAGE FORCE                       39.5       TIME AVG. FORCE        20.0    
 LARGEST SCALED RESIDUAL FORCE     -2.647E-10   AT NODE        929   DOF  1
   INSTANCE: ELASTIC_PLATE_1                                                                 
  CORRESPONDING RESIDUAL FORCE     -2.647E-10
 LARGEST INCREMENT OF DISP.         1.000E-06   AT NODE       2083   DOF  2
   INSTANCE: ELASTIC_PLATE_1                                                                 
 LARGEST CORRECTION TO DISP.        9.544E-12   AT NODE       1769   DOF  1
   INSTANCE: ELASTIC_PLATE_1                                                                 
          THE FORCE     EQUILIBRIUM RESPONSE WAS LINEAR IN THIS INCREMENT

 AVERAGE HEAT FLUX                  8.231E-04   TIME AVG. HEAT FLUX   1.468E-03
 LARGEST RESIDUAL HEAT FLUX         1.485E-13   AT NODE       2534   DOF 11
   INSTANCE: ELASTIC_PLATE_1                                                                 
 LARGEST INCREMENT OF TEMP.         0.244       AT NODE       2852   DOF 11
   INSTANCE: ELASTIC_PLATE_1                                                                 
 LARGEST CORRECTION TO TEMP.       -2.876E-03   AT NODE       2854   DOF 11
   INSTANCE: ELASTIC_PLATE_1                                                                 
          THE HEAT FLUX EQUILIBRIUM RESPONSE WAS LINEAR IN THIS INCREMENT

 MAXIMUM NON-PRESCRIBED INCREMENT IN TEMPERATURE IS   0.244    

 ITERATION SUMMARY FOR THE INCREMENT:   1 TOTAL ITERATIONS, OF WHICH
   0 ARE SEVERE DISCONTINUITY ITERATIONS AND  1 ARE EQUILIBRIUM ITERATIONS.

 TIME INCREMENT COMPLETED   1.00    ,  FRACTION OF STEP COMPLETED  0.990    
 STEP TIME COMPLETED        99.0    ,  TOTAL TIME COMPLETED         99.0    


  INCREMENT   100 STARTS. ATTEMPT NUMBER  1, TIME INCREMENT   1.00    
 
	UNSYMMETRIC NEW DIRECT SPARSE SOLVER RUNNING ON
 	1 HOST x 1 MPI RANK PER HOST x 2 THREADS PER RANK
        NUMBER OF EQUATIONS:  12864
        NUMBER OF RHS:        1
        NUMBER OF FLOPS:      9.247e+08
        SOLVER ELAPSED TIME:  26ms

               CONVERGENCE CHECKS FOR EQUILIBRIUM ITERATION     1


 AVERAGE FORCE                       39.9       TIME AVG. FORCE        20.2    
 LARGEST SCALED RESIDUAL FORCE     -2.647E-10   AT NODE        929   DOF  1
   INSTANCE: ELASTIC_PLATE_1                                                                 
  CORRESPONDING RESIDUAL FORCE     -2.647E-10
 LARGEST INCREMENT OF DISP.         1.000E-06   AT NODE       2083   DOF  2
   INSTANCE: ELASTIC_PLATE_1                                                                 
 LARGEST CORRECTION TO DISP.        9.544E-12   AT NODE       1768   DOF  1
   INSTANCE: ELASTIC_PLATE_1                                                                 
          THE FORCE     EQUILIBRIUM RESPONSE WAS LINEAR IN THIS INCREMENT

 AVERAGE HEAT FLUX                  8.172E-04   TIME AVG. HEAT FLUX   1.462E-03
 LARGEST RESIDUAL HEAT FLUX         1.467E-13   AT NODE       2214   DOF 11
   INSTANCE: ELASTIC_PLATE_1                                                                 
 LARGEST INCREMENT OF TEMP.         0.241       AT NODE       2852   DOF 11
   INSTANCE: ELASTIC_PLATE_1                                                                 
 LARGEST CORRECTION TO TEMP.       -2.818E-03   AT NODE       2864   DOF 11
   INSTANCE: ELASTIC_PLATE_1                                                                 
          THE HEAT FLUX EQUILIBRIUM RESPONSE WAS LINEAR IN THIS INCREMENT

 MAXIMUM NON-PRESCRIBED INCREMENT IN TEMPERATURE IS   0.241    

 ITERATION SUMMARY FOR THE INCREMENT:   1 TOTAL ITERATIONS, OF WHICH
   0 ARE SEVERE DISCONTINUITY ITERATIONS AND  1 ARE EQUILIBRIUM ITERATIONS.

 TIME INCREMENT COMPLETED   1.00    ,  FRACTION OF STEP COMPLETED   1.00    
 STEP TIME COMPLETED        100.    ,  TOTAL TIME COMPLETED         100.    


          THE ANALYSIS HAS BEEN COMPLETED



     ANALYSIS SUMMARY:
     TOTAL OF        100  INCREMENTS
                       0  CUTBACKS IN AUTOMATIC INCREMENTATION
                     101  ITERATIONS INCLUDING CONTACT ITERATIONS IF PRESENT
                     101  PASSES THROUGH THE EQUATION SOLVER OF WHICH 
                     101  INVOLVE MATRIX DECOMPOSITION, INCLUDING
                       0  DECOMPOSITION(S) OF THE MASS MATRIX
                       1  REORDERING OF EQUATIONS TO MINIMIZE WAVEFRONT
                       0  ADDITIONAL RESIDUAL EVALUATIONS FOR LINE SEARCHES
                       0  ADDITIONAL OPERATOR EVALUATIONS FOR LINE SEARCHES
                       3  WARNING MESSAGES DURING USER INPUT PROCESSING
                       0  WARNING MESSAGES DURING ANALYSIS
                       0  ANALYSIS WARNINGS ARE NUMERICAL PROBLEM MESSAGES
                       0  ANALYSIS WARNINGS ARE NEGATIVE EIGENVALUE MESSAGES
                       0  ERROR MESSAGES



     JOB TIME SUMMARY
       USER TIME (SEC)      =      24.    
       SYSTEM TIME (SEC)    =      4.6    
       TOTAL CPU TIME (SEC) =      29.    
       WALLCLOCK TIME (SEC) =           21
       MEMORY PEAK (GB)     =            0
