*Heading
** Job name: elastic_plate Model name: elastic_plate
** Generated by: Abaqus/CAE 2023.HF4
*Preprint, echo=NO, model=NO, history=NO, contact=NO
**
** PARTS
**
*Part, name=elastic_plate
*Node
      1,           0., 0.0181120001, 0.000500000024
      2, 0.0185979996, 0.0181120001, 0.000500000024
      3,           0., 0.00400000019, 0.000500000024
      4, 0.00349738635, 0.0019412078, 0.000500000024
      5, 0.0019412078, 0.00349738635, 0.000500000024
      6, 0.00400000019,           0., 0.000500000024
      7, 0.0185979996, 2.52797991e-11, 0.000500000024
      8, 0.00206644437, 0.0181120001, 0.000500000024
      9, 0.00413288875, 0.0181120001, 0.000500000024
     10, 0.00619933335, 0.0181120001, 0.000500000024
     11, 0.00826577749, 0.0181120001, 0.000500000024
     12, 0.0103322221, 0.0181120001, 0.000500000024
     13, 0.0123986667, 0.0181120001, 0.000500000024
     14, 0.0144651113, 0.0181120001, 0.000500000024
     15,  0.016531555, 0.0181120001, 0.000500000024
     16,           0.,    0.0044032, 0.000500000024
     17,           0., 0.00480639981, 0.000500000024
     18,           0., 0.00520960009, 0.000500000024
     19,           0., 0.0056127999, 0.000500000024
     20,           0., 0.00601600017, 0.000500000024
** ... 3196 like lines cut
*Element, type=C3D8T
  1,  164,   26,   27,  142, 1035,  897,  898, 1013
  2,   26,  164,  141,   25,  897, 1035, 1012,  896
  3,  405,  408,  349,  344, 1276, 1279, 1220, 1215
  4,  744,  771,   14,   15, 1615, 1642,  885,  886
  5,  204,   57,   58,  127, 1075,  928,  929,  998
  6,   49,  785,  158,   48,  920, 1656, 1029,  919
  7,  330,  150,  151,  227, 1201, 1021, 1022, 1098
  8,  146,  147,  148,  791, 1017, 1018, 1019, 1662
  9,   30,  166,  165,   29,  901, 1037, 1036,  900
 10,  231,  247,  141,  164, 1102, 1118, 1012, 1035
 11,  693,  663,  643,  682, 1564, 1534, 1514, 1553
 12,  771,  770,  769,  750, 1642, 1641, 1640, 1621
 13,  207,  279,  274,  208, 1078, 1150, 1145, 1079
 14,  283,  274,  279,  341, 1154, 1145, 1150, 1212
 15,  297,  275,  128,  203, 1168, 1146,  999, 1074
 16,  218,  217,  133,  125, 1089, 1088, 1004,  996
 17,   19,  160,  159,   18,  890, 1031, 1030,  889
 18,  160,   19,   20,  161, 1031,  890,  891, 1032
 19,  131,   67,   68,  135, 1002,  938,  939, 1006
 20,  139,   21,   22,  140, 1010,  892,  893, 1011
** ... 1489 like lines cut
*Nset, nset=Set-1, generate
    1,  3216,     1
*Elset, elset=Set-1, generate
    1,  1509,     1
** Section: Section-1
*Solid Section, elset=Set-1, material=multiphysics
,
*End Part
**  
**
** ASSEMBLY
**
*Assembly, name=Assembly
**  
*Instance, name=elastic_plate_1, part=elastic_plate
*End Instance
**  
*Elset, elset=ALLE, instance=elastic_plate_1, generate
    1,  1509,     1
*Nset, nset=ALLN, instance=elastic_plate_1, generate
    1,  3216,     1
*Nset, nset=top_side, instance=elastic_plate_1
 2083, 2084, 2085, 2086, 2087, 2088, 2089, 2090, 2091, 2092, 2093, 2094, 2095, 2096, 2097, 2098
 2099, 2100, 2101, 2102, 2103, 2104, 2105, 2106, 2107, 2108, 2109, 2110, 2111, 2112, 2113, 2114
 2115, 2118, 2197, 2198, 2858, 2859, 2860, 2866, 2871, 2876, 2877, 2878, 2879, 2881, 2883, 2884
 2885, 2886, 2888, 2890, 2891, 2893
*Elset, elset=top_side, instance=elastic_plate_1
  984, 1005, 1026, 1047, 1068, 1089, 1110, 1131, 1152, 1173, 1194, 1215, 1236, 1257, 1278, 1299
 1320, 1321, 1342, 1363, 1384, 1405, 1426, 1447, 1468, 1489
*Nset, nset=whole_part, instance=elastic_plate_1, generate
    1,  3216,     1
*Elset, elset=whole_part, instance=elastic_plate_1, generate
    1,  1509,     1
*Nset, nset=xsymm_side, instance=elastic_plate_1
    1,    3,   16,   17,   18,   19,   20,   21,   22,   23,   24,   25,   26,   27,   28,   29
   30,   31,   32,   33,   34,   35,   36,   37,   38,   39,   40,   41,   42,   43,   44,   45
   46,   47,   48,   49,  872,  874,  887,  888,  889,  890,  891,  892,  893,  894,  895,  896
  897,  898,  899,  900,  901,  902,  903,  904,  905,  906,  907,  908,  909,  910,  911,  912
  913,  914,  915,  916,  917,  918,  919,  920, 2839, 2840, 2841, 2842, 2843, 2844, 2845, 2846
 2847, 2848, 2849, 2850, 2851, 2852, 2853, 2854, 2855, 2856, 2857, 2861, 2862, 2863, 2864, 2865
 2867, 2868, 2869, 2870, 2872, 2873, 2874, 2875, 2879, 2880, 2882, 2887, 2888, 2889, 2892, 2894
 2895, 2896
*Elset, elset=xsymm_side, instance=elastic_plate_1
    1,    2,    6,    9,   17,   18,   20,   22,   24,   25,   26,   27,   28,   29,   30,   31
   32,   33,   34,   35,   36,   37,   38,   39,   40,  103,  107,  112,  125,  127,  130,  133
  143,  189,  220, 1489, 1490, 1491, 1492, 1493, 1494, 1495, 1496, 1497, 1498, 1499, 1500, 1501
 1502, 1503, 1504, 1505, 1506, 1507, 1508, 1509
*Nset, nset=ysymm_side, instance=elastic_plate_1
    6,    7,   76,   77,   78,   79,   80,   81,   82,   83,   84,   85,   86,   87,   88,   89
   90,   91,   92,   93,   94,   95,   96,   97,   98,   99,  100,  101,  102,  103,  104,  105
  106,  107,  108,  109,  110,  877,  878,  947,  948,  949,  950,  951,  952,  953,  954,  955
  956,  957,  958,  959,  960,  961,  962,  963,  964,  965,  966,  967,  968,  969,  970,  971
  972,  973,  974,  975,  976,  977,  978,  979,  980,  981, 1748, 1749, 1750, 1751, 1752, 1754
 1762, 1763, 1765, 1766, 1767, 1768, 1769, 1772, 1773, 1774, 1775, 1776, 1801, 1802, 1803, 1804
 1805, 1806, 1807, 1808, 1809, 1810, 1811, 1812, 1813, 1814, 1815, 1816
*Elset, elset=ysymm_side, instance=elastic_plate_1
  41,  62,  63,  65,  66,  67,  68,  69,  70,  71,  72,  73,  74,  75,  76,  77
  78,  79,  80,  81,  82,  83,  84,  86,  87,  89,  91,  92,  93, 111, 116, 122
 154, 169, 176, 182, 947, 948, 949, 950, 951, 952, 953, 954, 955, 956, 957, 958
 959, 960, 961, 962, 963
*Nset, nset=zsymm_side, instance=elastic_plate_1, generate
    1,  3216,     1
*Elset, elset=zsymm_side, instance=elastic_plate_1, generate
    1,  1509,     1
*End Assembly
*Amplitude, name=ramp
             0.,              0.,            1e+9.,              1.
** 
** MATERIALS
** 
*Material, name=multiphysics
*Density
1.,
*Depvar
      0,
*User Material, constants=1, type=THERMAL
0.,
*User Material, constants=1, type=MECHANICAL
0.,
** 
** PREDEFINED FIELDS
** 
** Name: CL_mol_diffusion   Type: Temperature
*Initial Conditions, type=TEMPERATURE
ALLN, 20.
** ----------------------------------------------------------------
** 
** STEP: Step-1
** 
*Step, name=Step-1, nlgeom=YES, inc=10000000
*Coupled Temperature-displacement, creep=none, deltmx=100000.
1e+7, 1e+9., 0.0001, 1e+7
** 
** BOUNDARY CONDITIONS
** 
** Name: mech_top_disp Type: Displacement/Rotation
*Boundary, amplitude=ramp
top_side, 2, 2, 0.0001
** Name: mech_xsymm Type: Displacement/Rotation
*Boundary
xsymm_side, 1, 1
** Name: mech_ysymm Type: Displacement/Rotation
*Boundary
ysymm_side, 2, 2
** Name: mech_zsymm Type: Displacement/Rotation
*Boundary
zsymm_side, 3, 3
*Boundary
top_side, 12, 12, 100
** 
** PREDEFINED FIELDS
** 
** Name: UFIELD   Type: Field
*Field, variable=1, user
ALLN
** 
** OUTPUT REQUESTS
** 
*Restart, write, frequency=0
** 
** FIELD OUTPUT: F-Output-1
** 
*Output, field
*Node Output
NT, RF, RFL, U
*Element Output, directions=YES
S, SDV
*Output, history, frequency=0
*End Step
