 Abaqus/Standard 2023.HF4                  DATE 08-Apr-2025 TIME 09:53:43
 SUMMARY OF JOB INFORMATION:
 STEP  INC ATT SEVERE EQUIL TOTAL  TOTAL      STEP       INC OF       DOF    IF
               DISCON ITERS ITERS  TIME/    TIME/LPF    TIME/LPF    MONITOR RIKS
               ITERS               FREQ
   1     1   1     0     2     2  1.00e+07   1.00e+07   1.000e+07 
   1     2   1     0     1     1  2.00e+07   2.00e+07   1.000e+07 
   1     3   1     0     1     1  3.00e+07   3.00e+07   1.000e+07 
   1     4   1     0     1     1  4.00e+07   4.00e+07   1.000e+07 
   1     5   1     0     1     1  5.00e+07   5.00e+07   1.000e+07 
   1     6   1     0     1     1  6.00e+07   6.00e+07   1.000e+07 
   1     7   1     0     1     1  7.00e+07   7.00e+07   1.000e+07 
   1     8   1     0     1     1  8.00e+07   8.00e+07   1.000e+07 
   1     9   1     0     1     1  9.00e+07   9.00e+07   1.000e+07 
   1    10   1     0     1     1  1.00e+08   1.00e+08   1.000e+07 
   1    11   1     0     1     1  1.10e+08   1.10e+08   1.000e+07 
   1    12   1     0     1     1  1.20e+08   1.20e+08   1.000e+07 
   1    13   1     0     1     1  1.30e+08   1.30e+08   1.000e+07 
   1    14   1     0     1     1  1.40e+08   1.40e+08   1.000e+07 
   1    15   1     0     1     1  1.50e+08   1.50e+08   1.000e+07 
   1    16   1     0     1     1  1.60e+08   1.60e+08   1.000e+07 
   1    17   1     0     1     1  1.70e+08   1.70e+08   1.000e+07 
   1    18   1     0     1     1  1.80e+08   1.80e+08   1.000e+07 
   1    19   1     0     1     1  1.90e+08   1.90e+08   1.000e+07 
   1    20   1     0     1     1  2.00e+08   2.00e+08   1.000e+07 
   1    21   1     0     1     1  2.10e+08   2.10e+08   1.000e+07 
   1    22   1     0     1     1  2.20e+08   2.20e+08   1.000e+07 
   1    23   1     0     1     1  2.30e+08   2.30e+08   1.000e+07 
   1    24   1     0     1     1  2.40e+08   2.40e+08   1.000e+07 
   1    25   1     0     1     1  2.50e+08   2.50e+08   1.000e+07 
   1    26   1     0     1     1  2.60e+08   2.60e+08   1.000e+07 
   1    27   1     0     1     1  2.70e+08   2.70e+08   1.000e+07 
   1    28   1     0     1     1  2.80e+08   2.80e+08   1.000e+07 
   1    29   1     0     1     1  2.90e+08   2.90e+08   1.000e+07 
   1    30   1     0     1     1  3.00e+08   3.00e+08   1.000e+07 
   1    31   1     0     1     1  3.10e+08   3.10e+08   1.000e+07 
   1    32   1     0     1     1  3.20e+08   3.20e+08   1.000e+07 
   1    33   1     0     1     1  3.30e+08   3.30e+08   1.000e+07 
   1    34   1     0     1     1  3.40e+08   3.40e+08   1.000e+07 
   1    35   1     0     1     1  3.50e+08   3.50e+08   1.000e+07 
   1    36   1     0     1     1  3.60e+08   3.60e+08   1.000e+07 
                          
 THE ANALYSIS HAS NOT BEEN COMPLETED
