 Abaqus/Standard 2023.HF4                  DATE 08-Apr-2025 TIME 11:08:44
 SUMMARY OF JOB INFORMATION:
 STEP  INC ATT SEVERE EQUIL TOTAL  TOTAL      STEP       INC OF       DOF    IF
               DISCON ITERS ITERS  TIME/    TIME/LPF    TIME/LPF    MONITOR RIKS
               ITERS               FREQ
   1     1   1     0     2     2  1.00       1.00       1.000     
   1     2   1     0     1     1  2.00       2.00       1.000     
   1     3   1     0     1     1  3.00       3.00       1.000     
   1     4   1     0     1     1  4.00       4.00       1.000     
   1     5   1     0     1     1  5.00       5.00       1.000     
   1     6   1     0     1     1  6.00       6.00       1.000     
   1     7   1     0     1     1  7.00       7.00       1.000     
   1     8   1     0     1     1  8.00       8.00       1.000     
   1     9   1     0     1     1  9.00       9.00       1.000     
   1    10   1     0     1     1  10.0       10.0       1.000     
   1    11   1     0     1     1  11.0       11.0       1.000     
   1    12   1     0     1     1  12.0       12.0       1.000     
   1    13   1     0     1     1  13.0       13.0       1.000     
   1    14   1     0     1     1  14.0       14.0       1.000     
   1    15   1     0     1     1  15.0       15.0       1.000     
   1    16   1     0     1     1  16.0       16.0       1.000     
   1    17   1U    0     4     4  16.0       16.0       1.000     
   1    17   2U    0     4     4  16.0       16.0       0.2500    
   1    17   3U    0     4     4  16.0       16.0       0.06250   
   1    17   4U    0     4     4  16.0       16.0       0.01562   
   1    17   5U    0     4     4  16.0       16.0       0.01000   
                          
 THE ANALYSIS HAS NOT BEEN COMPLETED
