 Abaqus/Standard 2023.HF4                  DATE 06-Apr-2025 TIME 21:41:55
 SUMMARY OF JOB INFORMATION:
 STEP  INC ATT SEVERE EQUIL TOTAL  TOTAL      STEP       INC OF       DOF    IF
               DISCON ITERS ITERS  TIME/    TIME/LPF    TIME/LPF    MONITOR RIKS
               ITERS               FREQ
   1     1   1     0     2     2  1.00       1.00       1.000     
   1     2   1     0     1     1  2.00       2.00       1.000     
   1     3   1     0     1     1  3.00       3.00       1.000     
   1     4   1     0     1     1  4.00       4.00       1.000     
   1     5   1     0     1     1  5.00       5.00       1.000     
   1     6   1     0     1     1  6.00       6.00       1.000     
   1     7   1     0     1     1  7.00       7.00       1.000     
   1     8   1     0     1     1  8.00       8.00       1.000     
   1     9   1     0     1     1  9.00       9.00       1.000     
   1    10   1     0     1     1  10.0       10.0       1.000     
   1    11   1     0     1     1  11.0       11.0       1.000     
   1    12   1     0     1     1  12.0       12.0       1.000     
   1    13   1     0     1     1  13.0       13.0       1.000     
   1    14   1     0     1     1  14.0       14.0       1.000     
   1    15   1     0     1     1  15.0       15.0       1.000     
   1    16   1     0     1     1  16.0       16.0       1.000     
   1    17   1     0     1     1  17.0       17.0       1.000     
   1    18   1     0     1     1  18.0       18.0       1.000     
   1    19   1     0     1     1  19.0       19.0       1.000     
   1    20   1     0     1     1  20.0       20.0       1.000     
   1    21   1     0     1     1  21.0       21.0       1.000     
   1    22   1     0     1     1  22.0       22.0       1.000     
   1    23   1     0     1     1  23.0       23.0       1.000     
   1    24   1     0     1     1  24.0       24.0       1.000     
   1    25   1     0     1     1  25.0       25.0       1.000     
   1    26   1     0     1     1  26.0       26.0       1.000     
   1    27   1     0     1     1  27.0       27.0       1.000     
   1    28   1     0     1     1  28.0       28.0       1.000     
   1    29   1     0     1     1  29.0       29.0       1.000     
   1    30   1     0     1     1  30.0       30.0       1.000     
   1    31   1     0     1     1  31.0       31.0       1.000     
   1    32   1     0     1     1  32.0       32.0       1.000     
   1    33   1     0     1     1  33.0       33.0       1.000     
   1    34   1     0     1     1  34.0       34.0       1.000     
   1    35   1     0     1     1  35.0       35.0       1.000     
   1    36   1     0     1     1  36.0       36.0       1.000     
   1    37   1     0     1     1  37.0       37.0       1.000     
   1    38   1     0     1     1  38.0       38.0       1.000     
   1    39   1     0     1     1  39.0       39.0       1.000     
   1    40   1     0     1     1  40.0       40.0       1.000     
   1    41   1     0     1     1  41.0       41.0       1.000     
   1    42   1     0     1     1  42.0       42.0       1.000     
   1    43   1     0     1     1  43.0       43.0       1.000     
   1    44   1     0     1     1  44.0       44.0       1.000     
   1    45   1     0     1     1  45.0       45.0       1.000     
   1    46   1     0     1     1  46.0       46.0       1.000     
   1    47   1     0     1     1  47.0       47.0       1.000     
   1    48   1     0     1     1  48.0       48.0       1.000     
   1    49   1     0     1     1  49.0       49.0       1.000     
   1    50   1     0     1     1  50.0       50.0       1.000     
   1    51   1     0     1     1  51.0       51.0       1.000     
   1    52   1     0     1     1  52.0       52.0       1.000     
   1    53   1     0     1     1  53.0       53.0       1.000     
   1    54   1     0     1     1  54.0       54.0       1.000     
   1    55   1     0     1     1  55.0       55.0       1.000     
   1    56   1     0     1     1  56.0       56.0       1.000     
   1    57   1     0     1     1  57.0       57.0       1.000     
   1    58   1     0     1     1  58.0       58.0       1.000     
   1    59   1     0     1     1  59.0       59.0       1.000     
   1    60   1     0     1     1  60.0       60.0       1.000     
   1    61   1     0     1     1  61.0       61.0       1.000     
   1    62   1     0     1     1  62.0       62.0       1.000     
   1    63   1     0     1     1  63.0       63.0       1.000     
   1    64   1     0     1     1  64.0       64.0       1.000     
   1    65   1     0     1     1  65.0       65.0       1.000     
   1    66   1     0     1     1  66.0       66.0       1.000     
   1    67   1     0     1     1  67.0       67.0       1.000     
   1    68   1     0     1     1  68.0       68.0       1.000     
   1    69   1     0     1     1  69.0       69.0       1.000     
   1    70   1     0     1     1  70.0       70.0       1.000     
   1    71   1     0     1     1  71.0       71.0       1.000     
   1    72   1     0     1     1  72.0       72.0       1.000     
   1    73   1     0     1     1  73.0       73.0       1.000     
   1    74   1     0     1     1  74.0       74.0       1.000     
   1    75   1     0     1     1  75.0       75.0       1.000     
   1    76   1     0     1     1  76.0       76.0       1.000     
   1    77   1     0     1     1  77.0       77.0       1.000     
   1    78   1     0     1     1  78.0       78.0       1.000     
   1    79   1     0     1     1  79.0       79.0       1.000     
   1    80   1     0     1     1  80.0       80.0       1.000     
   1    81   1     0     1     1  81.0       81.0       1.000     
   1    82   1     0     1     1  82.0       82.0       1.000     
   1    83   1     0     1     1  83.0       83.0       1.000     
   1    84   1     0     1     1  84.0       84.0       1.000     
   1    85   1     0     1     1  85.0       85.0       1.000     
   1    86   1     0     1     1  86.0       86.0       1.000     
   1    87   1     0     1     1  87.0       87.0       1.000     
   1    88   1     0     1     1  88.0       88.0       1.000     
   1    89   1     0     1     1  89.0       89.0       1.000     
   1    90   1     0     1     1  90.0       90.0       1.000     
   1    91   1     0     1     1  91.0       91.0       1.000     
   1    92   1     0     1     1  92.0       92.0       1.000     
   1    93   1     0     1     1  93.0       93.0       1.000     
   1    94   1     0     1     1  94.0       94.0       1.000     
   1    95   1     0     1     1  95.0       95.0       1.000     
   1    96   1     0     1     1  96.0       96.0       1.000     
   1    97   1     0     1     1  97.0       97.0       1.000     
   1    98   1     0     1     1  98.0       98.0       1.000     
   1    99   1     0     1     1  99.0       99.0       1.000     
   1   100   1     0     1     1  100.       100.       1.000     
   1   101   1     0     1     1  101.       101.       1.000     
   1   102   1     0     1     1  102.       102.       1.000     
   1   103   1     0     1     1  103.       103.       1.000     
   1   104   1     0     1     1  104.       104.       1.000     
   1   105   1     0     1     1  105.       105.       1.000     
   1   106   1     0     1     1  106.       106.       1.000     
   1   107   1     0     1     1  107.       107.       1.000     
   1   108   1     0     1     1  108.       108.       1.000     
   1   109   1     0     1     1  109.       109.       1.000     
   1   110   1     0     1     1  110.       110.       1.000     
   1   111   1     0     1     1  111.       111.       1.000     
   1   112   1     0     1     1  112.       112.       1.000     
   1   113   1     0     1     1  113.       113.       1.000     
   1   114   1     0     1     1  114.       114.       1.000     
   1   115   1     0     1     1  115.       115.       1.000     
   1   116   1     0     1     1  116.       116.       1.000     
   1   117   1     0     1     1  117.       117.       1.000     
   1   118   1     0     1     1  118.       118.       1.000     
   1   119   1     0     1     1  119.       119.       1.000     
   1   120   1     0     1     1  120.       120.       1.000     
   1   121   1     0     1     1  121.       121.       1.000     
   1   122   1     0     1     1  122.       122.       1.000     
   1   123   1     0     1     1  123.       123.       1.000     
   1   124   1     0     1     1  124.       124.       1.000     
   1   125   1     0     1     1  125.       125.       1.000     
   1   126   1     0     1     1  126.       126.       1.000     
   1   127   1     0     1     1  127.       127.       1.000     
   1   128   1     0     1     1  128.       128.       1.000     
   1   129   1     0     1     1  129.       129.       1.000     
   1   130   1     0     1     1  130.       130.       1.000     
   1   131   1     0     1     1  131.       131.       1.000     
   1   132   1     0     1     1  132.       132.       1.000     
   1   133   1     0     1     1  133.       133.       1.000     
   1   134   1     0     1     1  134.       134.       1.000     
   1   135   1     0     1     1  135.       135.       1.000     
   1   136   1     0     1     1  136.       136.       1.000     
   1   137   1     0     1     1  137.       137.       1.000     
   1   138   1     0     1     1  138.       138.       1.000     
   1   139   1     0     1     1  139.       139.       1.000     
   1   140   1     0     1     1  140.       140.       1.000     
   1   141   1     0     1     1  141.       141.       1.000     
   1   142   1     0     1     1  142.       142.       1.000     
   1   143   1     0     1     1  143.       143.       1.000     
   1   144   1     0     1     1  144.       144.       1.000     
   1   145   1     0     1     1  145.       145.       1.000     
   1   146   1     0     1     1  146.       146.       1.000     
   1   147   1     0     1     1  147.       147.       1.000     
   1   148   1     0     1     1  148.       148.       1.000     
   1   149   1     0     1     1  149.       149.       1.000     
   1   150   1     0     1     1  150.       150.       1.000     
   1   151   1     0     1     1  151.       151.       1.000     
   1   152   1     0     1     1  152.       152.       1.000     
   1   153   1     0     1     1  153.       153.       1.000     
   1   154   1     0     1     1  154.       154.       1.000     
   1   155   1     0     1     1  155.       155.       1.000     
   1   156   1     0     1     1  156.       156.       1.000     
   1   157   1     0     1     1  157.       157.       1.000     
   1   158   1     0     1     1  158.       158.       1.000     
   1   159   1     0     1     1  159.       159.       1.000     
   1   160   1     0     1     1  160.       160.       1.000     
   1   161   1     0     1     1  161.       161.       1.000     
   1   162   1     0     1     1  162.       162.       1.000     
   1   163   1     0     1     1  163.       163.       1.000     
   1   164   1     0     1     1  164.       164.       1.000     
   1   165   1     0     1     1  165.       165.       1.000     
   1   166   1     0     1     1  166.       166.       1.000     
   1   167   1     0     1     1  167.       167.       1.000     
   1   168   1     0     1     1  168.       168.       1.000     
   1   169   1     0     1     1  169.       169.       1.000     
   1   170   1     0     1     1  170.       170.       1.000     
   1   171   1     0     1     1  171.       171.       1.000     
   1   172   1     0     1     1  172.       172.       1.000     
   1   173   1     0     1     1  173.       173.       1.000     
   1   174   1     0     1     1  174.       174.       1.000     
   1   175   1     0     1     1  175.       175.       1.000     
   1   176   1     0     1     1  176.       176.       1.000     
   1   177   1     0     1     1  177.       177.       1.000     
   1   178   1     0     1     1  178.       178.       1.000     
   1   179   1     0     1     1  179.       179.       1.000     
   1   180   1     0     1     1  180.       180.       1.000     
   1   181   1     0     1     1  181.       181.       1.000     
   1   182   1     0     1     1  182.       182.       1.000     
   1   183   1     0     1     1  183.       183.       1.000     
   1   184   1     0     1     1  184.       184.       1.000     
   1   185   1     0     1     1  185.       185.       1.000     
   1   186   1     0     1     1  186.       186.       1.000     
   1   187   1     0     1     1  187.       187.       1.000     
   1   188   1     0     1     1  188.       188.       1.000     
   1   189   1     0     1     1  189.       189.       1.000     
   1   190   1     0     1     1  190.       190.       1.000     
   1   191   1     0     1     1  191.       191.       1.000     
   1   192   1     0     1     1  192.       192.       1.000     
   1   193   1     0     1     1  193.       193.       1.000     
   1   194   1     0     1     1  194.       194.       1.000     
   1   195   1     0     1     1  195.       195.       1.000     
   1   196   1     0     1     1  196.       196.       1.000     
   1   197   1     0     1     1  197.       197.       1.000     
   1   198   1     0     1     1  198.       198.       1.000     
   1   199   1     0     1     1  199.       199.       1.000     
   1   200   1     0     1     1  200.       200.       1.000     
   1   201   1     0     1     1  201.       201.       1.000     
   1   202   1     0     1     1  202.       202.       1.000     
   1   203   1     0     1     1  203.       203.       1.000     
   1   204   1     0     1     1  204.       204.       1.000     
   1   205   1     0     1     1  205.       205.       1.000     
   1   206   1     0     1     1  206.       206.       1.000     
   1   207   1     0     1     1  207.       207.       1.000     
   1   208   1     0     1     1  208.       208.       1.000     
   1   209   1     0     1     1  209.       209.       1.000     
   1   210   1     0     1     1  210.       210.       1.000     
   1   211   1     0     1     1  211.       211.       1.000     
   1   212   1     0     1     1  212.       212.       1.000     
   1   213   1     0     1     1  213.       213.       1.000     
   1   214   1     0     1     1  214.       214.       1.000     
   1   215   1     0     1     1  215.       215.       1.000     
   1   216   1     0     1     1  216.       216.       1.000     
   1   217   1     0     1     1  217.       217.       1.000     
   1   218   1     0     1     1  218.       218.       1.000     
   1   219   1     0     1     1  219.       219.       1.000     
   1   220   1     0     1     1  220.       220.       1.000     
   1   221   1     0     1     1  221.       221.       1.000     
   1   222   1     0     1     1  222.       222.       1.000     
   1   223   1     0     1     1  223.       223.       1.000     
   1   224   1     0     1     1  224.       224.       1.000     
   1   225   1     0     1     1  225.       225.       1.000     
   1   226   1     0     1     1  226.       226.       1.000     
   1   227   1     0     1     1  227.       227.       1.000     
   1   228   1     0     1     1  228.       228.       1.000     
   1   229   1     0     1     1  229.       229.       1.000     
   1   230   1     0     1     1  230.       230.       1.000     
   1   231   1     0     1     1  231.       231.       1.000     
   1   232   1     0     1     1  232.       232.       1.000     
   1   233   1     0     1     1  233.       233.       1.000     
   1   234   1     0     1     1  234.       234.       1.000     
   1   235   1     0     1     1  235.       235.       1.000     
   1   236   1     0     1     1  236.       236.       1.000     
   1   237   1     0     1     1  237.       237.       1.000     
   1   238   1     0     1     1  238.       238.       1.000     
   1   239   1     0     1     1  239.       239.       1.000     
   1   240   1     0     1     1  240.       240.       1.000     
   1   241   1     0     1     1  241.       241.       1.000     
   1   242   1     0     1     1  242.       242.       1.000     
   1   243   1     0     1     1  243.       243.       1.000     
   1   244   1     0     1     1  244.       244.       1.000     
   1   245   1     0     1     1  245.       245.       1.000     
   1   246   1     0     1     1  246.       246.       1.000     
   1   247   1     0     1     1  247.       247.       1.000     
   1   248   1     0     1     1  248.       248.       1.000     
   1   249   1     0     1     1  249.       249.       1.000     
   1   250   1     0     1     1  250.       250.       1.000     
   1   251   1     0     1     1  251.       251.       1.000     
   1   252   1     0     1     1  252.       252.       1.000     
   1   253   1     0     1     1  253.       253.       1.000     
   1   254   1     0     1     1  254.       254.       1.000     
   1   255   1     0     1     1  255.       255.       1.000     
   1   256   1     0     1     1  256.       256.       1.000     
   1   257   1     0     1     1  257.       257.       1.000     
   1   258   1     0     1     1  258.       258.       1.000     
   1   259   1     0     1     1  259.       259.       1.000     
   1   260   1     0     1     1  260.       260.       1.000     
   1   261   1     0     1     1  261.       261.       1.000     
   1   262   1     0     1     1  262.       262.       1.000     
   1   263   1     0     1     1  263.       263.       1.000     
   1   264   1     0     1     1  264.       264.       1.000     
   1   265   1     0     1     1  265.       265.       1.000     
   1   266   1     0     1     1  266.       266.       1.000     
   1   267   1     0     1     1  267.       267.       1.000     
   1   268   1     0     1     1  268.       268.       1.000     
   1   269   1     0     1     1  269.       269.       1.000     
   1   270   1     0     1     1  270.       270.       1.000     
   1   271   1     0     1     1  271.       271.       1.000     
   1   272   1     0     1     1  272.       272.       1.000     
   1   273   1     0     1     1  273.       273.       1.000     
   1   274   1     0     1     1  274.       274.       1.000     
   1   275   1     0     1     1  275.       275.       1.000     
   1   276   1     0     1     1  276.       276.       1.000     
   1   277   1     0     1     1  277.       277.       1.000     
   1   278   1     0     1     1  278.       278.       1.000     
   1   279   1     0     1     1  279.       279.       1.000     
   1   280   1     0     1     1  280.       280.       1.000     
   1   281   1     0     1     1  281.       281.       1.000     
   1   282   1     0     1     1  282.       282.       1.000     
   1   283   1     0     1     1  283.       283.       1.000     
   1   284   1     0     1     1  284.       284.       1.000     
   1   285   1     0     1     1  285.       285.       1.000     
   1   286   1     0     1     1  286.       286.       1.000     
   1   287   1     0     1     1  287.       287.       1.000     
   1   288   1     0     1     1  288.       288.       1.000     
   1   289   1     0     1     1  289.       289.       1.000     
   1   290   1     0     1     1  290.       290.       1.000     
   1   291   1     0     1     1  291.       291.       1.000     
   1   292   1     0     1     1  292.       292.       1.000     
   1   293   1     0     1     1  293.       293.       1.000     
   1   294   1     0     1     1  294.       294.       1.000     
   1   295   1     0     1     1  295.       295.       1.000     
   1   296   1     0     1     1  296.       296.       1.000     
   1   297   1     0     1     1  297.       297.       1.000     
   1   298   1     0     1     1  298.       298.       1.000     
   1   299   1     0     1     1  299.       299.       1.000     
   1   300   1     0     1     1  300.       300.       1.000     
   1   301   1     0     1     1  301.       301.       1.000     
   1   302   1     0     1     1  302.       302.       1.000     
   1   303   1     0     1     1  303.       303.       1.000     
   1   304   1     0     1     1  304.       304.       1.000     
   1   305   1     0     1     1  305.       305.       1.000     
   1   306   1     0     1     1  306.       306.       1.000     
   1   307   1     0     1     1  307.       307.       1.000     
   1   308   1     0     1     1  308.       308.       1.000     
   1   309   1     0     1     1  309.       309.       1.000     
   1   310   1     0     1     1  310.       310.       1.000     
   1   311   1     0     1     1  311.       311.       1.000     
   1   312   1     0     1     1  312.       312.       1.000     
   1   313   1     0     1     1  313.       313.       1.000     
   1   314   1     0     1     1  314.       314.       1.000     
   1   315   1     0     1     1  315.       315.       1.000     
   1   316   1     0     1     1  316.       316.       1.000     
   1   317   1     0     1     1  317.       317.       1.000     
   1   318   1     0     1     1  318.       318.       1.000     
   1   319   1     0     1     1  319.       319.       1.000     
   1   320   1     0     1     1  320.       320.       1.000     
   1   321   1     0     1     1  321.       321.       1.000     
   1   322   1     0     1     1  322.       322.       1.000     
   1   323   1     0     1     1  323.       323.       1.000     
   1   324   1     0     1     1  324.       324.       1.000     
   1   325   1     0     1     1  325.       325.       1.000     
   1   326   1     0     1     1  326.       326.       1.000     
   1   327   1     0     1     1  327.       327.       1.000     
   1   328   1     0     1     1  328.       328.       1.000     
   1   329   1     0     1     1  329.       329.       1.000     
   1   330   1     0     1     1  330.       330.       1.000     
   1   331   1     0     1     1  331.       331.       1.000     
   1   332   1     0     1     1  332.       332.       1.000     
   1   333   1     0     1     1  333.       333.       1.000     
   1   334   1     0     1     1  334.       334.       1.000     
   1   335   1     0     1     1  335.       335.       1.000     
   1   336   1     0     1     1  336.       336.       1.000     
   1   337   1     0     1     1  337.       337.       1.000     
   1   338   1     0     1     1  338.       338.       1.000     
   1   339   1     0     1     1  339.       339.       1.000     
   1   340   1     0     1     1  340.       340.       1.000     
   1   341   1     0     1     1  341.       341.       1.000     
   1   342   1     0     1     1  342.       342.       1.000     
   1   343   1     0     1     1  343.       343.       1.000     
   1   344   1     0     1     1  344.       344.       1.000     
   1   345   1     0     1     1  345.       345.       1.000     
   1   346   1     0     1     1  346.       346.       1.000     
   1   347   1     0     1     1  347.       347.       1.000     
   1   348   1     0     1     1  348.       348.       1.000     
   1   349   1     0     1     1  349.       349.       1.000     
   1   350   1     0     1     1  350.       350.       1.000     
   1   351   1     0     1     1  351.       351.       1.000     
   1   352   1     0     1     1  352.       352.       1.000     
   1   353   1     0     1     1  353.       353.       1.000     
   1   354   1     0     1     1  354.       354.       1.000     
   1   355   1     0     1     1  355.       355.       1.000     
   1   356   1     0     1     1  356.       356.       1.000     
   1   357   1     0     1     1  357.       357.       1.000     
   1   358   1     0     1     1  358.       358.       1.000     
   1   359   1     0     1     1  359.       359.       1.000     
   1   360   1     0     1     1  360.       360.       1.000     
   1   361   1     0     1     1  361.       361.       1.000     
   1   362   1     0     1     1  362.       362.       1.000     
   1   363   1     0     1     1  363.       363.       1.000     
   1   364   1     0     1     1  364.       364.       1.000     
   1   365   1     0     1     1  365.       365.       1.000     
   1   366   1     0     1     1  366.       366.       1.000     
   1   367   1     0     1     1  367.       367.       1.000     
   1   368   1     0     1     1  368.       368.       1.000     
   1   369   1     0     1     1  369.       369.       1.000     
   1   370   1     0     1     1  370.       370.       1.000     
   1   371   1     0     1     1  371.       371.       1.000     
   1   372   1     0     1     1  372.       372.       1.000     
   1   373   1     0     1     1  373.       373.       1.000     
   1   374   1     0     1     1  374.       374.       1.000     
   1   375   1     0     1     1  375.       375.       1.000     
   1   376   1     0     1     1  376.       376.       1.000     
   1   377   1     0     1     1  377.       377.       1.000     
   1   378   1     0     1     1  378.       378.       1.000     
   1   379   1     0     1     1  379.       379.       1.000     
   1   380   1     0     1     1  380.       380.       1.000     
   1   381   1     0     1     1  381.       381.       1.000     
   1   382   1     0     1     1  382.       382.       1.000     
   1   383   1     0     1     1  383.       383.       1.000     
   1   384   1     0     1     1  384.       384.       1.000     
   1   385   1     0     1     1  385.       385.       1.000     
   1   386   1     0     1     1  386.       386.       1.000     
   1   387   1     0     1     1  387.       387.       1.000     
   1   388   1     0     1     1  388.       388.       1.000     
   1   389   1     0     1     1  389.       389.       1.000     
   1   390   1     0     1     1  390.       390.       1.000     
   1   391   1     0     1     1  391.       391.       1.000     
   1   392   1     0     1     1  392.       392.       1.000     
   1   393   1     0     1     1  393.       393.       1.000     
   1   394   1     0     1     1  394.       394.       1.000     
   1   395   1     0     1     1  395.       395.       1.000     
   1   396   1     0     1     1  396.       396.       1.000     
   1   397   1     0     1     1  397.       397.       1.000     
   1   398   1     0     1     1  398.       398.       1.000     
   1   399   1     0     1     1  399.       399.       1.000     
   1   400   1     0     1     1  400.       400.       1.000     
   1   401   1     0     1     1  401.       401.       1.000     
   1   402   1     0     1     1  402.       402.       1.000     
   1   403   1     0     1     1  403.       403.       1.000     
   1   404   1     0     1     1  404.       404.       1.000     
   1   405   1     0     1     1  405.       405.       1.000     
   1   406   1     0     1     1  406.       406.       1.000     
   1   407   1     0     1     1  407.       407.       1.000     
   1   408   1     0     1     1  408.       408.       1.000     
   1   409   1     0     1     1  409.       409.       1.000     
   1   410   1     0     1     1  410.       410.       1.000     
   1   411   1     0     1     1  411.       411.       1.000     
   1   412   1     0     1     1  412.       412.       1.000     
   1   413   1     0     1     1  413.       413.       1.000     
   1   414   1     0     1     1  414.       414.       1.000     
   1   415   1     0     1     1  415.       415.       1.000     
   1   416   1     0     1     1  416.       416.       1.000     
   1   417   1     0     1     1  417.       417.       1.000     
   1   418   1     0     1     1  418.       418.       1.000     
   1   419   1     0     1     1  419.       419.       1.000     
   1   420   1     0     1     1  420.       420.       1.000     
   1   421   1     0     1     1  421.       421.       1.000     
   1   422   1     0     1     1  422.       422.       1.000     
   1   423   1     0     1     1  423.       423.       1.000     
   1   424   1     0     1     1  424.       424.       1.000     
   1   425   1     0     1     1  425.       425.       1.000     
   1   426   1     0     1     1  426.       426.       1.000     
   1   427   1     0     1     1  427.       427.       1.000     
   1   428   1     0     1     1  428.       428.       1.000     
   1   429   1     0     1     1  429.       429.       1.000     
   1   430   1     0     1     1  430.       430.       1.000     
   1   431   1     0     1     1  431.       431.       1.000     
   1   432   1     0     1     1  432.       432.       1.000     
   1   433   1     0     1     1  433.       433.       1.000     
   1   434   1     0     1     1  434.       434.       1.000     
   1   435   1     0     1     1  435.       435.       1.000     
   1   436   1     0     1     1  436.       436.       1.000     
   1   437   1     0     1     1  437.       437.       1.000     
   1   438   1     0     1     1  438.       438.       1.000     
   1   439   1     0     1     1  439.       439.       1.000     
   1   440   1     0     1     1  440.       440.       1.000     
   1   441   1     0     1     1  441.       441.       1.000     
   1   442   1     0     1     1  442.       442.       1.000     
   1   443   1     0     1     1  443.       443.       1.000     
   1   444   1     0     1     1  444.       444.       1.000     
   1   445   1     0     1     1  445.       445.       1.000     
   1   446   1     0     1     1  446.       446.       1.000     
   1   447   1     0     1     1  447.       447.       1.000     
   1   448   1     0     1     1  448.       448.       1.000     
   1   449   1     0     1     1  449.       449.       1.000     
   1   450   1     0     1     1  450.       450.       1.000     
   1   451   1     0     1     1  451.       451.       1.000     
   1   452   1     0     1     1  452.       452.       1.000     
   1   453   1     0     1     1  453.       453.       1.000     
   1   454   1     0     1     1  454.       454.       1.000     
   1   455   1     0     1     1  455.       455.       1.000     
   1   456   1     0     1     1  456.       456.       1.000     
   1   457   1     0     1     1  457.       457.       1.000     
   1   458   1     0     1     1  458.       458.       1.000     
   1   459   1     0     1     1  459.       459.       1.000     
   1   460   1     0     1     1  460.       460.       1.000     
   1   461   1     0     1     1  461.       461.       1.000     
   1   462   1     0     1     1  462.       462.       1.000     
   1   463   1     0     1     1  463.       463.       1.000     
   1   464   1     0     1     1  464.       464.       1.000     
   1   465   1     0     1     1  465.       465.       1.000     
   1   466   1     0     1     1  466.       466.       1.000     
   1   467   1     0     1     1  467.       467.       1.000     
   1   468   1     0     1     1  468.       468.       1.000     
   1   469   1     0     1     1  469.       469.       1.000     
   1   470   1     0     1     1  470.       470.       1.000     
   1   471   1     0     1     1  471.       471.       1.000     
   1   472   1     0     1     1  472.       472.       1.000     
   1   473   1     0     1     1  473.       473.       1.000     
   1   474   1     0     1     1  474.       474.       1.000     
   1   475   1     0     1     1  475.       475.       1.000     
   1   476   1     0     1     1  476.       476.       1.000     
   1   477   1     0     2     2  477.       477.       1.000     
   1   478   1     0     1     1  478.       478.       1.000     
   1   479   1     0     1     1  479.       479.       1.000     
   1   480   1     0     1     1  480.       480.       1.000     
   1   481   1     0     1     1  481.       481.       1.000     
   1   482   1     0     1     1  482.       482.       1.000     
   1   483   1     0     1     1  483.       483.       1.000     
   1   484   1     0     1     1  484.       484.       1.000     
   1   485   1     0     1     1  485.       485.       1.000     
   1   486   1     0     1     1  486.       486.       1.000     
   1   487   1     0     1     1  487.       487.       1.000     
   1   488   1     0     1     1  488.       488.       1.000     
   1   489   1     0     1     1  489.       489.       1.000     
   1   490   1     0     1     1  490.       490.       1.000     
   1   491   1     0     1     1  491.       491.       1.000     
   1   492   1     0     1     1  492.       492.       1.000     
   1   493   1     0     1     1  493.       493.       1.000     
   1   494   1     0     1     1  494.       494.       1.000     
   1   495   1     0     1     1  495.       495.       1.000     
   1   496   1     0     1     1  496.       496.       1.000     
   1   497   1     0     1     1  497.       497.       1.000     
   1   498   1     0     1     1  498.       498.       1.000     
   1   499   1     0     1     1  499.       499.       1.000     
   1   500   1     0     1     1  500.       500.       1.000     
   1   501   1     0     1     1  501.       501.       1.000     
   1   502   1     0     1     1  502.       502.       1.000     
   1   503   1     0     1     1  503.       503.       1.000     
   1   504   1     0     1     1  504.       504.       1.000     
   1   505   1     0     1     1  505.       505.       1.000     
   1   506   1     0     1     1  506.       506.       1.000     
   1   507   1     0     1     1  507.       507.       1.000     
   1   508   1     0     1     1  508.       508.       1.000     
   1   509   1     0     1     1  509.       509.       1.000     
   1   510   1     0     1     1  510.       510.       1.000     
   1   511   1     0     1     1  511.       511.       1.000     
   1   512   1     0     1     1  512.       512.       1.000     
   1   513   1     0     1     1  513.       513.       1.000     
   1   514   1     0     1     1  514.       514.       1.000     
   1   515   1     0     1     1  515.       515.       1.000     
   1   516   1     0     1     1  516.       516.       1.000     
   1   517   1     0     1     1  517.       517.       1.000     
   1   518   1     0     1     1  518.       518.       1.000     
   1   519   1     0     1     1  519.       519.       1.000     
   1   520   1     0     1     1  520.       520.       1.000     
   1   521   1     0     1     1  521.       521.       1.000     
   1   522   1     0     1     1  522.       522.       1.000     
   1   523   1     0     1     1  523.       523.       1.000     
   1   524   1     0     1     1  524.       524.       1.000     
   1   525   1     0     1     1  525.       525.       1.000     
   1   526   1     0     1     1  526.       526.       1.000     
   1   527   1     0     1     1  527.       527.       1.000     
   1   528   1     0     1     1  528.       528.       1.000     
   1   529   1     0     1     1  529.       529.       1.000     
   1   530   1     0     1     1  530.       530.       1.000     
   1   531   1     0     1     1  531.       531.       1.000     
   1   532   1     0     1     1  532.       532.       1.000     
   1   533   1     0     1     1  533.       533.       1.000     
   1   534   1     0     1     1  534.       534.       1.000     
   1   535   1     0     1     1  535.       535.       1.000     
   1   536   1     0     1     1  536.       536.       1.000     
   1   537   1     0     1     1  537.       537.       1.000     
   1   538   1     0     1     1  538.       538.       1.000     
   1   539   1     0     1     1  539.       539.       1.000     
   1   540   1     0     1     1  540.       540.       1.000     
   1   541   1     0     1     1  541.       541.       1.000     
   1   542   1     0     1     1  542.       542.       1.000     
   1   543   1     0     1     1  543.       543.       1.000     
   1   544   1     0     1     1  544.       544.       1.000     
   1   545   1     0     1     1  545.       545.       1.000     
   1   546   1     0     1     1  546.       546.       1.000     
   1   547   1     0     1     1  547.       547.       1.000     
   1   548   1     0     1     1  548.       548.       1.000     
   1   549   1     0     1     1  549.       549.       1.000     
   1   550   1     0     1     1  550.       550.       1.000     
   1   551   1     0     1     1  551.       551.       1.000     
   1   552   1     0     1     1  552.       552.       1.000     
   1   553   1     0     1     1  553.       553.       1.000     
   1   554   1     0     1     1  554.       554.       1.000     
   1   555   1     0     1     1  555.       555.       1.000     
   1   556   1     0     1     1  556.       556.       1.000     
   1   557   1     0     1     1  557.       557.       1.000     
   1   558   1     0     1     1  558.       558.       1.000     
   1   559   1     0     1     1  559.       559.       1.000     
   1   560   1     0     1     1  560.       560.       1.000     
   1   561   1     0     1     1  561.       561.       1.000     
   1   562   1     0     1     1  562.       562.       1.000     
   1   563   1     0     1     1  563.       563.       1.000     
   1   564   1     0     1     1  564.       564.       1.000     
   1   565   1     0     1     1  565.       565.       1.000     
   1   566   1     0     1     1  566.       566.       1.000     
   1   567   1     0     1     1  567.       567.       1.000     
   1   568   1     0     1     1  568.       568.       1.000     
   1   569   1     0     1     1  569.       569.       1.000     
   1   570   1     0     1     1  570.       570.       1.000     
   1   571   1     0     1     1  571.       571.       1.000     
   1   572   1     0     1     1  572.       572.       1.000     
   1   573   1     0     1     1  573.       573.       1.000     
   1   574   1     0     1     1  574.       574.       1.000     
   1   575   1     0     1     1  575.       575.       1.000     
   1   576   1     0     1     1  576.       576.       1.000     
   1   577   1     0     1     1  577.       577.       1.000     
   1   578   1     0     1     1  578.       578.       1.000     
   1   579   1     0     1     1  579.       579.       1.000     
   1   580   1     0     1     1  580.       580.       1.000     
   1   581   1     0     1     1  581.       581.       1.000     
   1   582   1     0     1     1  582.       582.       1.000     
   1   583   1     0     1     1  583.       583.       1.000     
   1   584   1     0     1     1  584.       584.       1.000     
   1   585   1     0     1     1  585.       585.       1.000     
   1   586   1     0     1     1  586.       586.       1.000     
   1   587   1     0     1     1  587.       587.       1.000     
   1   588   1     0     1     1  588.       588.       1.000     
   1   589   1     0     1     1  589.       589.       1.000     
   1   590   1     0     1     1  590.       590.       1.000     
   1   591   1     0     1     1  591.       591.       1.000     
   1   592   1     0     1     1  592.       592.       1.000     
   1   593   1     0     1     1  593.       593.       1.000     
   1   594   1     0     1     1  594.       594.       1.000     
   1   595   1     0     1     1  595.       595.       1.000     
   1   596   1     0     1     1  596.       596.       1.000     
   1   597   1     0     1     1  597.       597.       1.000     
   1   598   1     0     1     1  598.       598.       1.000     
   1   599   1     0     1     1  599.       599.       1.000     
   1   600   1     0     1     1  600.       600.       1.000     
   1   601   1     0     1     1  601.       601.       1.000     
   1   602   1     0     1     1  602.       602.       1.000     
   1   603   1     0     1     1  603.       603.       1.000     
   1   604   1     0     1     1  604.       604.       1.000     
   1   605   1     0     1     1  605.       605.       1.000     
   1   606   1     0     1     1  606.       606.       1.000     
   1   607   1     0     1     1  607.       607.       1.000     
   1   608   1     0     1     1  608.       608.       1.000     
   1   609   1     0     1     1  609.       609.       1.000     
   1   610   1     0     1     1  610.       610.       1.000     
   1   611   1     0     1     1  611.       611.       1.000     
   1   612   1     0     1     1  612.       612.       1.000     
   1   613   1     0     1     1  613.       613.       1.000     
   1   614   1     0     1     1  614.       614.       1.000     
   1   615   1     0     1     1  615.       615.       1.000     
   1   616   1     0     1     1  616.       616.       1.000     
   1   617   1     0     1     1  617.       617.       1.000     
   1   618   1     0     1     1  618.       618.       1.000     
   1   619   1     0     1     1  619.       619.       1.000     
   1   620   1     0     1     1  620.       620.       1.000     
   1   621   1     0     1     1  621.       621.       1.000     
   1   622   1     0     1     1  622.       622.       1.000     
   1   623   1     0     1     1  623.       623.       1.000     
   1   624   1     0     1     1  624.       624.       1.000     
   1   625   1     0     1     1  625.       625.       1.000     
   1   626   1     0     1     1  626.       626.       1.000     
   1   627   1     0     1     1  627.       627.       1.000     
   1   628   1     0     1     1  628.       628.       1.000     
   1   629   1     0     1     1  629.       629.       1.000     
   1   630   1     0     1     1  630.       630.       1.000     
   1   631   1     0     1     1  631.       631.       1.000     
   1   632   1     0     1     1  632.       632.       1.000     
   1   633   1     0     1     1  633.       633.       1.000     
   1   634   1     0     1     1  634.       634.       1.000     
   1   635   1     0     1     1  635.       635.       1.000     
   1   636   1     0     1     1  636.       636.       1.000     
   1   637   1     0     1     1  637.       637.       1.000     
   1   638   1     0     1     1  638.       638.       1.000     
   1   639   1     0     1     1  639.       639.       1.000     
   1   640   1     0     1     1  640.       640.       1.000     
   1   641   1     0     1     1  641.       641.       1.000     
   1   642   1     0     1     1  642.       642.       1.000     
   1   643   1     0     1     1  643.       643.       1.000     
   1   644   1     0     1     1  644.       644.       1.000     
   1   645   1     0     1     1  645.       645.       1.000     
   1   646   1     0     1     1  646.       646.       1.000     
   1   647   1     0     1     1  647.       647.       1.000     
   1   648   1     0     1     1  648.       648.       1.000     
   1   649   1     0     1     1  649.       649.       1.000     
   1   650   1     0     1     1  650.       650.       1.000     
   1   651   1     0     1     1  651.       651.       1.000     
   1   652   1     0     1     1  652.       652.       1.000     
   1   653   1     0     1     1  653.       653.       1.000     
   1   654   1     0     1     1  654.       654.       1.000     
   1   655   1     0     1     1  655.       655.       1.000     
   1   656   1     0     1     1  656.       656.       1.000     
   1   657   1     0     1     1  657.       657.       1.000     
   1   658   1     0     1     1  658.       658.       1.000     
   1   659   1     0     1     1  659.       659.       1.000     
   1   660   1     0     1     1  660.       660.       1.000     
   1   661   1     0     1     1  661.       661.       1.000     
   1   662   1     0     1     1  662.       662.       1.000     
   1   663   1     0     1     1  663.       663.       1.000     
   1   664   1     0     1     1  664.       664.       1.000     
   1   665   1     0     1     1  665.       665.       1.000     
   1   666   1     0     1     1  666.       666.       1.000     
   1   667   1     0     1     1  667.       667.       1.000     
   1   668   1     0     1     1  668.       668.       1.000     
   1   669   1     0     1     1  669.       669.       1.000     
   1   670   1     0     1     1  670.       670.       1.000     
   1   671   1     0     1     1  671.       671.       1.000     
   1   672   1     0     1     1  672.       672.       1.000     
   1   673   1     0     1     1  673.       673.       1.000     
   1   674   1     0     1     1  674.       674.       1.000     
   1   675   1     0     1     1  675.       675.       1.000     
   1   676   1     0     1     1  676.       676.       1.000     
   1   677   1     0     1     1  677.       677.       1.000     
   1   678   1     0     1     1  678.       678.       1.000     
   1   679   1     0     1     1  679.       679.       1.000     
   1   680   1     0     1     1  680.       680.       1.000     
   1   681   1     0     1     1  681.       681.       1.000     
   1   682   1     0     1     1  682.       682.       1.000     
   1   683   1     0     1     1  683.       683.       1.000     
   1   684   1     0     1     1  684.       684.       1.000     
   1   685   1     0     1     1  685.       685.       1.000     
   1   686   1     0     1     1  686.       686.       1.000     
   1   687   1     0     1     1  687.       687.       1.000     
   1   688   1     0     1     1  688.       688.       1.000     
   1   689   1     0     1     1  689.       689.       1.000     
   1   690   1     0     1     1  690.       690.       1.000     
   1   691   1     0     1     1  691.       691.       1.000     
   1   692   1     0     1     1  692.       692.       1.000     
   1   693   1     0     1     1  693.       693.       1.000     
   1   694   1     0     1     1  694.       694.       1.000     
   1   695   1     0     1     1  695.       695.       1.000     
   1   696   1     0     1     1  696.       696.       1.000     
   1   697   1     0     1     1  697.       697.       1.000     
   1   698   1     0     1     1  698.       698.       1.000     
   1   699   1     0     1     1  699.       699.       1.000     
   1   700   1     0     1     1  700.       700.       1.000     
   1   701   1     0     1     1  701.       701.       1.000     
   1   702   1     0     1     1  702.       702.       1.000     
   1   703   1     0     1     1  703.       703.       1.000     
   1   704   1     0     1     1  704.       704.       1.000     
   1   705   1     0     1     1  705.       705.       1.000     
   1   706   1     0     1     1  706.       706.       1.000     
   1   707   1     0     1     1  707.       707.       1.000     
   1   708   1     0     1     1  708.       708.       1.000     
   1   709   1     0     1     1  709.       709.       1.000     
   1   710   1     0     1     1  710.       710.       1.000     
   1   711   1     0     1     1  711.       711.       1.000     
   1   712   1     0     1     1  712.       712.       1.000     
   1   713   1     0     1     1  713.       713.       1.000     
   1   714   1     0     1     1  714.       714.       1.000     
   1   715   1     0     1     1  715.       715.       1.000     
   1   716   1     0     1     1  716.       716.       1.000     
   1   717   1     0     1     1  717.       717.       1.000     
   1   718   1     0     1     1  718.       718.       1.000     
   1   719   1     0     1     1  719.       719.       1.000     
   1   720   1     0     1     1  720.       720.       1.000     
   1   721   1     0     1     1  721.       721.       1.000     
   1   722   1     0     1     1  722.       722.       1.000     
   1   723   1     0     1     1  723.       723.       1.000     
   1   724   1     0     1     1  724.       724.       1.000     
   1   725   1     0     1     1  725.       725.       1.000     
   1   726   1     0     1     1  726.       726.       1.000     
   1   727   1     0     1     1  727.       727.       1.000     
   1   728   1     0     1     1  728.       728.       1.000     
   1   729   1     0     1     1  729.       729.       1.000     
   1   730   1     0     1     1  730.       730.       1.000     
   1   731   1     0     1     1  731.       731.       1.000     
   1   732   1     0     1     1  732.       732.       1.000     
   1   733   1     0     1     1  733.       733.       1.000     
   1   734   1     0     1     1  734.       734.       1.000     
   1   735   1     0     1     1  735.       735.       1.000     
   1   736   1     0     1     1  736.       736.       1.000     
   1   737   1     0     1     1  737.       737.       1.000     
   1   738   1     0     1     1  738.       738.       1.000     
   1   739   1     0     1     1  739.       739.       1.000     
   1   740   1     0     1     1  740.       740.       1.000     
   1   741   1     0     1     1  741.       741.       1.000     
   1   742   1     0     1     1  742.       742.       1.000     
   1   743   1     0     1     1  743.       743.       1.000     
   1   744   1     0     1     1  744.       744.       1.000     
   1   745   1     0     1     1  745.       745.       1.000     
   1   746   1     0     1     1  746.       746.       1.000     
   1   747   1     0     1     1  747.       747.       1.000     
   1   748   1     0     1     1  748.       748.       1.000     
   1   749   1     0     1     1  749.       749.       1.000     
   1   750   1     0     1     1  750.       750.       1.000     
   1   751   1     0     1     1  751.       751.       1.000     
   1   752   1     0     1     1  752.       752.       1.000     
   1   753   1     0     1     1  753.       753.       1.000     
   1   754   1     0     1     1  754.       754.       1.000     
   1   755   1     0     1     1  755.       755.       1.000     
   1   756   1     0     1     1  756.       756.       1.000     
   1   757   1     0     1     1  757.       757.       1.000     
   1   758   1     0     1     1  758.       758.       1.000     
   1   759   1     0     1     1  759.       759.       1.000     
   1   760   1     0     1     1  760.       760.       1.000     
   1   761   1     0     1     1  761.       761.       1.000     
   1   762   1     0     1     1  762.       762.       1.000     
   1   763   1     0     1     1  763.       763.       1.000     
   1   764   1     0     1     1  764.       764.       1.000     
   1   765   1     0     1     1  765.       765.       1.000     
   1   766   1     0     1     1  766.       766.       1.000     
   1   767   1     0     1     1  767.       767.       1.000     
   1   768   1     0     1     1  768.       768.       1.000     
   1   769   1     0     1     1  769.       769.       1.000     
   1   770   1     0     1     1  770.       770.       1.000     
   1   771   1     0     1     1  771.       771.       1.000     
   1   772   1     0     1     1  772.       772.       1.000     
   1   773   1     0     1     1  773.       773.       1.000     
   1   774   1     0     1     1  774.       774.       1.000     
   1   775   1     0     1     1  775.       775.       1.000     
   1   776   1     0     1     1  776.       776.       1.000     
   1   777   1     0     1     1  777.       777.       1.000     
   1   778   1     0     1     1  778.       778.       1.000     
   1   779   1     0     1     1  779.       779.       1.000     
   1   780   1     0     1     1  780.       780.       1.000     
   1   781   1     0     1     1  781.       781.       1.000     
   1   782   1     0     1     1  782.       782.       1.000     
   1   783   1     0     1     1  783.       783.       1.000     
   1   784   1     0     1     1  784.       784.       1.000     
   1   785   1     0     1     1  785.       785.       1.000     
   1   786   1     0     1     1  786.       786.       1.000     
   1   787   1     0     1     1  787.       787.       1.000     
   1   788   1     0     1     1  788.       788.       1.000     
   1   789   1     0     1     1  789.       789.       1.000     
   1   790   1     0     1     1  790.       790.       1.000     
   1   791   1     0     1     1  791.       791.       1.000     
   1   792   1     0     1     1  792.       792.       1.000     
   1   793   1     0     1     1  793.       793.       1.000     
   1   794   1     0     1     1  794.       794.       1.000     
   1   795   1     0     1     1  795.       795.       1.000     
   1   796   1     0     1     1  796.       796.       1.000     
   1   797   1     0     1     1  797.       797.       1.000     
   1   798   1     0     1     1  798.       798.       1.000     
   1   799   1     0     1     1  799.       799.       1.000     
   1   800   1     0     1     1  800.       800.       1.000     
   1   801   1     0     1     1  801.       801.       1.000     
   1   802   1     0     1     1  802.       802.       1.000     
   1   803   1     0     1     1  803.       803.       1.000     
   1   804   1     0     1     1  804.       804.       1.000     
   1   805   1     0     1     1  805.       805.       1.000     
   1   806   1     0     1     1  806.       806.       1.000     
   1   807   1     0     1     1  807.       807.       1.000     
   1   808   1     0     1     1  808.       808.       1.000     
   1   809   1     0     1     1  809.       809.       1.000     
   1   810   1     0     1     1  810.       810.       1.000     
   1   811   1     0     1     1  811.       811.       1.000     
   1   812   1     0     1     1  812.       812.       1.000     
   1   813   1     0     1     1  813.       813.       1.000     
   1   814   1     0     1     1  814.       814.       1.000     
   1   815   1     0     1     1  815.       815.       1.000     
   1   816   1     0     1     1  816.       816.       1.000     
   1   817   1     0     1     1  817.       817.       1.000     
   1   818   1     0     1     1  818.       818.       1.000     
   1   819   1     0     1     1  819.       819.       1.000     
   1   820   1     0     1     1  820.       820.       1.000     
   1   821   1     0     1     1  821.       821.       1.000     
   1   822   1     0     1     1  822.       822.       1.000     
   1   823   1     0     1     1  823.       823.       1.000     
   1   824   1     0     1     1  824.       824.       1.000     
   1   825   1     0     1     1  825.       825.       1.000     
   1   826   1     0     1     1  826.       826.       1.000     
   1   827   1     0     1     1  827.       827.       1.000     
   1   828   1     0     1     1  828.       828.       1.000     
   1   829   1     0     1     1  829.       829.       1.000     
   1   830   1     0     1     1  830.       830.       1.000     
   1   831   1     0     1     1  831.       831.       1.000     
   1   832   1     0     1     1  832.       832.       1.000     
   1   833   1     0     1     1  833.       833.       1.000     
   1   834   1     0     1     1  834.       834.       1.000     
   1   835   1     0     1     1  835.       835.       1.000     
   1   836   1     0     1     1  836.       836.       1.000     
   1   837   1     0     1     1  837.       837.       1.000     
   1   838   1     0     1     1  838.       838.       1.000     
   1   839   1     0     1     1  839.       839.       1.000     
   1   840   1     0     1     1  840.       840.       1.000     
   1   841   1     0     1     1  841.       841.       1.000     
   1   842   1     0     1     1  842.       842.       1.000     
   1   843   1     0     1     1  843.       843.       1.000     
   1   844   1     0     1     1  844.       844.       1.000     
   1   845   1     0     1     1  845.       845.       1.000     
   1   846   1     0     1     1  846.       846.       1.000     
   1   847   1     0     1     1  847.       847.       1.000     
   1   848   1     0     1     1  848.       848.       1.000     
   1   849   1     0     1     1  849.       849.       1.000     
   1   850   1     0     1     1  850.       850.       1.000     
   1   851   1     0     1     1  851.       851.       1.000     
   1   852   1     0     1     1  852.       852.       1.000     
   1   853   1     0     1     1  853.       853.       1.000     
   1   854   1     0     1     1  854.       854.       1.000     
   1   855   1     0     1     1  855.       855.       1.000     
   1   856   1     0     1     1  856.       856.       1.000     
   1   857   1     0     1     1  857.       857.       1.000     
   1   858   1     0     1     1  858.       858.       1.000     
   1   859   1     0     1     1  859.       859.       1.000     
   1   860   1     0     1     1  860.       860.       1.000     
   1   861   1     0     1     1  861.       861.       1.000     
   1   862   1     0     1     1  862.       862.       1.000     
   1   863   1     0     1     1  863.       863.       1.000     
   1   864   1     0     1     1  864.       864.       1.000     
   1   865   1     0     1     1  865.       865.       1.000     
   1   866   1     0     1     1  866.       866.       1.000     
   1   867   1     0     1     1  867.       867.       1.000     
   1   868   1     0     1     1  868.       868.       1.000     
   1   869   1     0     1     1  869.       869.       1.000     
   1   870   1     0     1     1  870.       870.       1.000     
   1   871   1     0     1     1  871.       871.       1.000     
   1   872   1     0     1     1  872.       872.       1.000     
   1   873   1     0     1     1  873.       873.       1.000     
   1   874   1     0     1     1  874.       874.       1.000     
   1   875   1     0     1     1  875.       875.       1.000     
   1   876   1     0     1     1  876.       876.       1.000     
   1   877   1     0     1     1  877.       877.       1.000     
   1   878   1     0     1     1  878.       878.       1.000     
   1   879   1     0     1     1  879.       879.       1.000     
   1   880   1     0     1     1  880.       880.       1.000     
   1   881   1     0     1     1  881.       881.       1.000     
   1   882   1     0     1     1  882.       882.       1.000     
   1   883   1     0     1     1  883.       883.       1.000     
   1   884   1     0     1     1  884.       884.       1.000     
   1   885   1     0     1     1  885.       885.       1.000     
   1   886   1     0     1     1  886.       886.       1.000     
   1   887   1     0     1     1  887.       887.       1.000     
   1   888   1     0     1     1  888.       888.       1.000     
   1   889   1     0     1     1  889.       889.       1.000     
   1   890   1     0     1     1  890.       890.       1.000     
   1   891   1     0     1     1  891.       891.       1.000     
   1   892   1     0     1     1  892.       892.       1.000     
   1   893   1     0     1     1  893.       893.       1.000     
   1   894   1     0     1     1  894.       894.       1.000     
   1   895   1     0     1     1  895.       895.       1.000     
   1   896   1     0     1     1  896.       896.       1.000     
   1   897   1     0     1     1  897.       897.       1.000     
   1   898   1     0     1     1  898.       898.       1.000     
   1   899   1     0     1     1  899.       899.       1.000     
   1   900   1     0     1     1  900.       900.       1.000     
   1   901   1     0     1     1  901.       901.       1.000     
   1   902   1     0     1     1  902.       902.       1.000     
   1   903   1     0     1     1  903.       903.       1.000     
   1   904   1     0     1     1  904.       904.       1.000     
   1   905   1     0     1     1  905.       905.       1.000     
   1   906   1     0     1     1  906.       906.       1.000     
   1   907   1     0     1     1  907.       907.       1.000     
   1   908   1     0     1     1  908.       908.       1.000     
   1   909   1     0     1     1  909.       909.       1.000     
   1   910   1     0     1     1  910.       910.       1.000     
   1   911   1     0     1     1  911.       911.       1.000     
   1   912   1     0     1     1  912.       912.       1.000     
   1   913   1     0     1     1  913.       913.       1.000     
   1   914   1     0     1     1  914.       914.       1.000     
   1   915   1     0     1     1  915.       915.       1.000     
   1   916   1     0     1     1  916.       916.       1.000     
   1   917   1     0     1     1  917.       917.       1.000     
   1   918   1     0     1     1  918.       918.       1.000     
   1   919   1     0     1     1  919.       919.       1.000     
   1   920   1     0     1     1  920.       920.       1.000     
   1   921   1     0     1     1  921.       921.       1.000     
   1   922   1     0     1     1  922.       922.       1.000     
   1   923   1     0     1     1  923.       923.       1.000     
   1   924   1     0     1     1  924.       924.       1.000     
   1   925   1     0     1     1  925.       925.       1.000     
   1   926   1     0     1     1  926.       926.       1.000     
   1   927   1     0     1     1  927.       927.       1.000     
   1   928   1     0     1     1  928.       928.       1.000     
   1   929   1     0     1     1  929.       929.       1.000     
   1   930   1     0     1     1  930.       930.       1.000     
   1   931   1     0     1     1  931.       931.       1.000     
   1   932   1     0     1     1  932.       932.       1.000     
   1   933   1     0     1     1  933.       933.       1.000     
   1   934   1     0     1     1  934.       934.       1.000     
   1   935   1     0     1     1  935.       935.       1.000     
   1   936   1     0     1     1  936.       936.       1.000     
   1   937   1     0     1     1  937.       937.       1.000     
   1   938   1     0     1     1  938.       938.       1.000     
   1   939   1     0     1     1  939.       939.       1.000     
   1   940   1     0     1     1  940.       940.       1.000     
   1   941   1     0     1     1  941.       941.       1.000     
   1   942   1     0     1     1  942.       942.       1.000     
   1   943   1     0     1     1  943.       943.       1.000     
   1   944   1     0     1     1  944.       944.       1.000     
   1   945   1     0     1     1  945.       945.       1.000     
   1   946   1     0     1     1  946.       946.       1.000     
   1   947   1     0     1     1  947.       947.       1.000     
   1   948   1     0     1     1  948.       948.       1.000     
   1   949   1     0     1     1  949.       949.       1.000     
   1   950   1     0     1     1  950.       950.       1.000     
   1   951   1     0     1     1  951.       951.       1.000     
   1   952   1     0     1     1  952.       952.       1.000     
   1   953   1     0     1     1  953.       953.       1.000     
   1   954   1     0     1     1  954.       954.       1.000     
   1   955   1     0     1     1  955.       955.       1.000     
   1   956   1     0     1     1  956.       956.       1.000     
   1   957   1     0     1     1  957.       957.       1.000     
   1   958   1     0     1     1  958.       958.       1.000     
   1   959   1     0     1     1  959.       959.       1.000     
   1   960   1     0     1     1  960.       960.       1.000     
   1   961   1     0     1     1  961.       961.       1.000     
   1   962   1     0     1     1  962.       962.       1.000     
   1   963   1     0     1     1  963.       963.       1.000     
   1   964   1     0     1     1  964.       964.       1.000     
   1   965   1     0     1     1  965.       965.       1.000     
   1   966   1     0     1     1  966.       966.       1.000     
   1   967   1     0     1     1  967.       967.       1.000     
   1   968   1     0     1     1  968.       968.       1.000     
   1   969   1     0     1     1  969.       969.       1.000     
   1   970   1     0     1     1  970.       970.       1.000     
   1   971   1     0     1     1  971.       971.       1.000     
   1   972   1     0     1     1  972.       972.       1.000     
   1   973   1     0     1     1  973.       973.       1.000     
   1   974   1     0     1     1  974.       974.       1.000     
   1   975   1     0     1     1  975.       975.       1.000     
   1   976   1     0     1     1  976.       976.       1.000     
   1   977   1     0     1     1  977.       977.       1.000     
   1   978   1     0     1     1  978.       978.       1.000     
   1   979   1     0     1     1  979.       979.       1.000     
   1   980   1     0     1     1  980.       980.       1.000     
   1   981   1     0     1     1  981.       981.       1.000     
   1   982   1     0     1     1  982.       982.       1.000     
   1   983   1     0     1     1  983.       983.       1.000     
   1   984   1     0     1     1  984.       984.       1.000     
   1   985   1     0     1     1  985.       985.       1.000     
   1   986   1     0     1     1  986.       986.       1.000     
   1   987   1     0     1     1  987.       987.       1.000     
   1   988   1     0     1     1  988.       988.       1.000     
   1   989   1     0     1     1  989.       989.       1.000     
   1   990   1     0     1     1  990.       990.       1.000     
   1   991   1     0     1     1  991.       991.       1.000     
   1   992   1     0     1     1  992.       992.       1.000     
   1   993   1     0     1     1  993.       993.       1.000     
   1   994   1     0     1     1  994.       994.       1.000     
   1   995   1     0     1     1  995.       995.       1.000     
   1   996   1     0     1     1  996.       996.       1.000     
   1   997   1     0     1     1  997.       997.       1.000     
   1   998   1     0     1     1  998.       998.       1.000     
   1   999   1     0     1     1  999.       999.       1.000     
   1  1000   1     0     1     1  1.00e+03   1.00e+03   1.000     
                          
 THE ANALYSIS HAS COMPLETED SUCCESSFULLY
