*Heading
** Job name: notched_plate Model name: notched_plate
** Generated by: Abaqus/CAE 2023.HF4
*Preprint, echo=NO, model=NO, history=NO, contact=NO
**
** PARTS
**
*Part, name=plate
*Node
      1, -1.02445483e-11, 0.000500000024, 4.99999987e-06
      2,           0.,           0., 4.99999987e-06
      3, 0.000500000024, 2.04890965e-11, 4.99999987e-06
      4,           0.,           0., -1.26310624e-13
      5, -1.02445483e-11, 0.000500000024, -1.26310624e-13
      6, 0.000500000024, 2.04890965e-11, -1.26310624e-13
      7, -0.000500000024, 4.99999987e-06,           0.
      8, -0.000500000024, 0.000500000024,           0.
      9, -0.000500000024, 0.000500000024, 4.99999987e-06
     10, -0.000500000024, 4.99999987e-06, 4.99999987e-06
     11, 2.04890965e-11, -0.000500000024,           0.
     12, -0.000500000024, -0.000500000024,           0.
     13, -0.000500000024, -4.99999987e-06,           0.
     14, 2.04890965e-11, -0.000500000024, 4.99999987e-06
     15, -0.000500000024, -4.99999987e-06, 4.99999987e-06
     16, -0.000500000024, -0.000500000024, 4.99999987e-06
     17, -9.85632062e-12, 0.000459275994, 4.99999987e-06
     18, -8.30796109e-12, 0.000421491044, 4.99999987e-06
     19, -6.87134811e-12, 0.000386433036, 4.99999987e-06
     20, -5.53841261e-12, 0.00035390511, 4.99999987e-06
** ... 10334 like lines cut
*Element, type=C3D8T
  1,  551,  549,  170,  171,  946,  944,   20,   19
  2,  171,  172,  553,  551,   19,   18,  948,  946
  3,  549,  547,  169,  170,  944,  942,   21,   20
  4,  547,  545,  168,  169,  942,  940,   22,   21
  5,  545,  543,  167,  168,  940,  938,   23,   22
  6,  166,  167,  543,  541,   24,   23,  938,  936
  7,  618,  575,  540,  539, 1013,  970,  935,  934
  8,  592,  322,  321,  588,  987,  331,  332,  983
  9,  164,  165,  576,  574,   26,   25,  971,  969
 10,  162,  163,  572,  570,   28,   27,  967,  965
 11,  660,  611,  569,  568, 1055, 1006,  964,  963
 12,  160,  161,  612,  609,   30,   29, 1007, 1004
 13,  291,  568,  569,  292,  362,  963,  964,  361
 14,  607,  605,  158,  159, 1002, 1000,   32,   31
 15,  700,  652,  603,  704, 1095, 1047,  998, 1099
 16,  157,  158,  605,  603,   33,   32, 1000,  998
 17,  703,  757,  704,  653, 1098, 1152, 1099, 1048
 18,  155,  156,  652,  649,   35,   34, 1047, 1044
 19,  649,  647,  154,  155, 1044, 1042,   36,   35
 20,  153,  154,  647,  645,   37,   36, 1042, 1040
** ... 5066 like lines cut
*Nset, nset=whole_plate, generate
     1,  10354,      1
*Elset, elset=whole_plate, generate
    1,  5086,     1
** Section: Section-1
*Solid Section, elset=whole_plate, material=multiphysics
,
*End Part
**  
**
** ASSEMBLY
**
*Assembly, name=Assembly
**  
*Instance, name=plate-1, part=plate
*End Instance
**  
*Elset, elset=ALLE, instance=plate-1, generate
    1,  5086,     1
*Nset, nset=ALLN, instance=plate-1, generate
     1,  10354,      1
*Nset, nset=bottom_side, instance=plate-1
   11,   12,   14,   16,  408,  409,  410,  411,  412,  413,  414,  415,  416,  417,  418,  419
  527,  528,  529,  530,  531,  532,  533,  534,  535,  536,  537,  538, 2123, 2124, 2125, 2126
 2127, 2128, 2129, 2130, 2131, 2132, 2133, 2134, 2135, 2136, 2137, 2180, 2181, 2182, 2183, 2184
 2185, 2186, 2187, 2188, 2189, 2190, 2191, 2192
*Elset, elset=bottom_side, instance=plate-1
  459,  460,  462,  463,  468,  504,  509,  510,  515,  517,  518,  519,  524,  887,  894,  901
  906,  907,  970,  971,  972, 2917, 2919, 2921, 2922, 2925, 2926
*Nset, nset=left_side, instance=plate-1
   7,   8,   9,  10,  12,  13,  15,  16, 304, 305, 306, 307, 308, 309, 310, 311
 312, 313, 314, 339, 340, 341, 342, 343, 344, 345, 346, 347, 348, 349, 420, 421
 422, 423, 424, 425, 426, 427, 428, 429, 430, 516, 517, 518, 519, 520, 521, 522
 523, 524, 525, 526
*Elset, elset=left_side, instance=plate-1
  29,  47,  52,  54,  72,  74,  78,  83,  84,  89,  92,  96, 460, 461, 469, 474
 475, 477, 478, 505, 516, 532, 533, 563
*Nset, nset=middle_line, instance=plate-1
   2,   3,   4,   6,  45,  46,  47,  48,  49,  50,  51,  52,  53,  54,  55,  56
  57,  58,  59,  60,  61,  62,  63,  64,  65,  66,  67,  68,  69,  70,  71,  72
  73,  74,  75,  76,  77,  78,  79,  80,  81,  82,  83,  84,  85,  86,  87,  88
  89,  90,  91,  92,  93,  94,  95,  96,  97,  98,  99, 100, 101, 102, 103, 104
 105, 106, 107, 108, 109, 110, 111, 112, 113, 114, 115, 116, 117, 118, 119, 120
 121, 122, 123, 124, 125, 126, 127, 128, 129, 130, 131, 132, 133, 134, 135, 136
 137, 138, 139, 140, 141, 142, 143, 144, 145, 174, 175, 176, 177, 178, 179, 180
 181, 182, 183, 184, 185, 186, 187, 188, 189, 190, 191, 192, 193, 194, 195, 196
 197, 198, 199, 200, 201, 202, 203, 204, 205, 206, 207, 208, 209, 210, 211, 212
 213, 214, 215, 216, 217, 218, 219, 220, 221, 222, 223, 224, 225, 226, 227, 228
 229, 230, 231, 232, 233, 234, 235, 236, 237, 238, 239, 240, 241, 242, 243, 244
 245, 246, 247, 248, 249, 250, 251, 252, 253, 254, 255, 256, 257, 258, 259, 260
 261, 262, 263, 264, 265, 266, 267, 268, 269, 270, 271, 272, 273, 274
*Elset, elset=middle_line, instance=plate-1
  875,  876,  878,  879,  880,  927,  932,  933,  935,  936,  952,  953,  956,  975,  978,  979
  987,  988,  989,  992,  993,  994,  995,  996,  997,  998,  999, 1000, 1001, 1002, 1003, 1004
 1005, 1006, 1007, 1008, 1009, 1010, 1011, 1012, 1014, 1015, 1016, 1017, 1018, 1019, 1020, 1021
 1022, 1023, 1024, 1025, 1026, 1027, 1028, 1029, 1030, 1031, 1032, 1033, 1034, 1035, 1036, 1037
 1038, 1039, 1040, 1041, 1042, 1043, 1044, 1045, 1046, 1048, 1050, 1053, 1054, 1055, 1058, 1060
 1062, 1065, 1068, 1073, 1076, 1082, 1084, 1086, 1088, 1091, 1100, 1105, 1109, 1112, 1114, 1117
 1124, 1130, 1172, 1173, 1239, 1274, 3043, 3044, 3051, 3058, 3059, 3063, 3064, 3067, 3124, 3125
 3126, 3128, 3129, 3130, 3131, 3132, 3133, 3134, 3135, 3136, 3137, 3138, 3139, 3140, 3141, 3142
 3143, 3145, 3146, 3147, 3148, 3149, 3150, 3151, 3152, 3153, 3154, 3155, 3156, 3157, 3158, 3159
 3160, 3161, 3162, 3163, 3164, 3165, 3166, 3167, 3168, 3169, 3170, 3172, 3173, 3174, 3175, 3176
 3177, 3178, 3179, 3180, 3181, 3182, 3183, 3185, 3186, 3187, 3188, 3189, 3190, 3191, 3192, 3193
 3194, 3195, 3196, 3197, 3198, 3199, 3200, 3201, 3202, 3204, 3205, 3220, 3221, 3223, 3225, 3227
 3230, 3231, 3233, 3236, 3238, 3244, 3251, 3261, 3269, 3274, 3282, 3289
*Nset, nset=right_side, instance=plate-1
    3,    6, 2123, 2124, 2138, 2139, 2140, 2141, 2142, 2143, 2144, 2145, 2146, 2147, 2148, 2149
 2150, 2151, 2152, 2153, 2154, 2155, 2156, 2157, 2158, 2159, 2160, 2161, 2162, 2163, 2164, 2165
 2166, 2167, 2168, 2169, 2170, 2171, 2172, 2173, 2174, 2175, 2176, 2177, 2178, 2179, 6339, 6340
 6341, 6342, 6343, 6344, 6345, 6346, 6347, 6348, 6349, 6350, 6351, 6352, 6353, 6354, 6355, 6356
 6357, 6358, 6359, 6360, 6361, 6362, 6363, 6364, 6365, 6366, 6367, 6368, 6369, 6370, 6371, 6396
 6397, 6398, 6399, 6400, 6401, 6402, 6403, 6404, 6405, 6406
*Elset, elset=right_side, instance=plate-1
  910,  917,  924,  925,  926,  970,  975,  980,  981,  982,  983,  984,  986, 1066, 1123, 1138
 1169, 1275, 1771, 1878, 2914, 2929, 3068, 3074, 3075, 3080, 3081, 3083, 3092, 3125, 3127, 3206
 3207, 3208, 3209, 3210, 3211, 3212, 3215, 3322, 3430, 3432, 3436, 5029
*Nset, nset=top_side, instance=plate-1
    1,    5,    8,    9,  315,  316,  317,  318,  319,  320,  321,  322,  323,  324,  325,  326
  327,  328,  329,  330,  331,  332,  333,  334,  335,  336,  337,  338, 6345, 6346, 6372, 6373
 6374, 6375, 6376, 6377, 6378, 6379, 6380, 6381, 6382, 6383, 6384, 6385, 6386, 6387, 6388, 6389
 6390, 6391, 6392, 6393, 6394, 6395
*Elset, elset=top_side, instance=plate-1
    8,   47,   48,   58,   65,   66,   67,   71,   82,   86,   87,   90,  124, 3035, 3036, 3083
 3084, 3091, 3216, 3218, 3219, 5014, 5017, 5018, 5020, 5022
*Nset, nset=whole_plate, instance=plate-1, generate
     1,  10354,      1
*Elset, elset=whole_plate, instance=plate-1, generate
    1,  5086,     1
*End Assembly
*Amplitude, name=constant
             0.,              1.,           1000.,              1.
*Amplitude, name=constant_temp_init
             0.,              1.,              1.,              1.
*Amplitude, name=ramp
             0.,              0.,           1000.,              1.
*Amplitude, name=ramp_temp_middle
             1.,              1.,           1000.,              3.
** 
** MATERIALS
** 
*Material, name=multiphysics
*Density
1.,
*Depvar
      0,
*User Material, constants=1, type=THERMAL
0.,
*User Material, constants=1, type=MECHANICAL
0.,
** ----------------------------------------------------------------
** 
** STEP: Step-1
** 
*Step, name=Step-1, nlgeom=YES, inc=1000000000
*Coupled Temperature-displacement, creep=none, deltmx=1000.
1., 1000., 0.01, 1.
** 
** BOUNDARY CONDITIONS
** 
** Name: mech_bottom_fix Type: Symmetry/Antisymmetry/Encastre
*Boundary
bottom_side, PINNED
** Name: mech_top_disp Type: Displacement/Rotation
*Boundary, amplitude=ramp
top_side, 2, 2, 5e-05
** 
** PREDEFINED FIELDS
** 
** Name: UFIELD   Type: Field
*Field, variable=1, user
ALLN
** 
** OUTPUT REQUESTS
** 
*Restart, write, frequency=0
** 
** FIELD OUTPUT: F-Output-1
** 
*Output, field
*Node Output
NT, RF, RFL, U
*Element Output, directions=YES
LE, S, SDV, UVARM
*Output, history, frequency=0
*End Step
