# --------------- Execution Environment -----------------
ABAQUSLM_LICENSE_FILE = 4084@lic-abaqus.aalto.fi
ABAQUS_LANG = English_United States.1252
ABAQUS_PY_TRANSLATION_DICTIONARY = Configuration/Xresources/en_US/en_US_PyDict.py
ABAQUS_SEQ = 2023_07_21-20.45.57 RELr425 183702
ABAQUS_TRANSLATION_DICTIONARY = Configuration/Xresources/en_US/en_US_Dict.py
ABA_BLA_LIBRARY_PATH = C:\SIMULIA\EstProducts\2023;C:\SIMULIA\EstProducts\2023\win_b64;C:\SIMULIA\EstProducts\2023\win_b64\code;C:\SIMULIA\EstProducts\2023\win_b64\code\bin;C:\SIMULIA\EstProducts\2023\win_b64\code\bin\SMAExternal;C:\SIMULIA\EstProducts\2023\win_b64\CAEresources;C:\SIMULIA\EstProducts\2023\win_b64\SMA;C:\SIMULIA\EstProducts\2023\win_b64\code\bin\SMAExternal\Interop;C:\SIMULIA\EstProducts\2023\win_b64\code\bin\SMAExternal\Elysium;C:\SIMULIA\EstProducts\2023\win_b64\tools\SMApy\python2.7;C:\SIMULIA\EstProducts\2023\win_b64\tools\SMApy\python2.7\lib;C:\SIMULIA\EstProducts\2023\win_b64\tools\SMApy\python2.7\DLLs
ABA_COMMAND = C:\SIMULIA\EstProducts\2023\win_b64\code\bin\SMALauncher.exe
ABA_DRIVERNAME = abq2023hf4.bat
ABA_HOME = C:\SIMULIA\EstProducts\2023\win_b64
ABA_LIBRARY_PATHNAME = PATH
ABA_MPI_LIBRARY_PATH = C:\SIMULIA\EstProducts\2023;C:\SIMULIA\EstProducts\2023\win_b64;C:\SIMULIA\EstProducts\2023\win_b64\code;C:\SIMULIA\EstProducts\2023\win_b64\code\bin;C:\SIMULIA\EstProducts\2023\win_b64\code\bin\SMAExternal;C:\SIMULIA\EstProducts\2023\win_b64\CAEresources;C:\SIMULIA\EstProducts\2023\win_b64\SMA;C:\SIMULIA\EstProducts\2023\win_b64\code\bin\SMAExternal\Interop;C:\SIMULIA\EstProducts\2023\win_b64\code\bin\SMAExternal\Elysium;C:\SIMULIA\EstProducts\2023\win_b64\tools\SMApy\python2.7;C:\SIMULIA\EstProducts\2023\win_b64\tools\SMApy\python2.7\lib;C:\SIMULIA\EstProducts\2023\win_b64\tools\SMApy\python2.7\DLLs
ABA_PATH = C:\SIMULIA\EstProducts\2023;C:\SIMULIA\EstProducts\2023\win_b64;C:\SIMULIA\EstProducts\2023\win_b64\code;C:\SIMULIA\EstProducts\2023\win_b64\code\bin;C:\SIMULIA\EstProducts\2023\win_b64\code\bin\SMAExternal;C:\SIMULIA\EstProducts\2023\win_b64\CAEresources;C:\SIMULIA\EstProducts\2023\win_b64\SMA
ABA_PATH_BASE = C:\SIMULIA\EstProducts\2023\win_b64;
ABQINFO = C:\SIMULIA\EstProducts\2023\win_b64\SMA\info\
ABQLMHANGLIMIT = 0
ABQLMIMPL = FLEXNET
ABQLMQUEUE = 30
ABQLMUSER = nguyenb5
ABQ_DLALLOCATOR = 1
ALLUSERSPROFILE = C:\ProgramData
ALTAIR_LICENSE_PATH = LZUO8-4LN0D-ZR43P-FT4YV;LZUO8-4LN0D-ZR43P-FT4YV
ANSYS_LSW_DOC = C:\Program Files\LS-DYNA Suite R14 Student\documentation\
ANSYS_LSW_LSDYNA = C:\Program Files\LS-DYNA Suite R14 Student\lsdyna\ls-dyna_smp_d_R14.1.1s_1-gef50e1efb1_winx64_ifort190.exe
ANSYS_LSW_LSPP = C:\Program Files\LS-DYNA Suite R14 Student\lspp\lsprepost4.10_x64.exe
APPDATA = C:\Users\nguyenb5\AppData\Roaming
BUNDLED_DEBUGPY_PATH = c:\Users\nguyenb5\.vscode\extensions\ms-python.debugpy-2025.6.0-win32-x64\bundled\libs\debugpy
CATCOMMANDPATH = C:\SIMULIA\EstProducts\2023\win_b64\code\command
CATDICTIONARYPATH = C:\SIMULIA\EstProducts\2023\win_b64\code\dictionary
CHOCOLATEYINSTALL = C:\ProgramData\chocolatey
CHOCOLATEYLASTPATHUPDATE = 133712359850823357
CHROME_CRASHPAD_PIPE_NAME = \\.\pipe\crashpad_2028_TYKNWZQBDDUBMOLK
CMAKE_PREFIX_PATH = C:\Program Files (x86)\Intel\oneAPI\compiler\latest;
CMPLR_ROOT = C:\Program Files (x86)\Intel\oneAPI\compiler\latest
COLORTERM = truecolor
COMMANDPROMPTTYPE = Native
COMMONPROGRAMFILES = C:\Program Files\Common Files
COMMONPROGRAMFILES(X86) = C:\Program Files (x86)\Common Files
COMMONPROGRAMW6432 = C:\Program Files\Common Files
COMPUTERNAME = L23-0203
COMSPEC = C:\WINDOWS\system32\cmd.exe
COVERAGE_RCFILE = C:\SIMULIA\EstProducts\2023\win_b64\SMA\site\pyCoverageConfig.env
CPATH = C:\Program Files (x86)\Intel\oneAPI\mkl\latest\include;C:\Program Files (x86)\Intel\oneAPI\compiler\latest\include;C:\Program Files (x86)\Intel\oneAPI\compiler\latest\opt\oclfpga\include;
CUSTOMWORKSPACE = 
DEVENVDIR = C:\Program Files\Microsoft Visual Studio\2022\Enterprise\Common7\IDE\
DRIVERDATA = C:\Windows\System32\Drivers\DriverData
DSY_TENANT = OnPremise
EXTENSIONSDKDIR = C:\Program Files (x86)\Microsoft SDKs\Windows Kits\10\ExtensionSDKs
EXTERNAL_INCLUDE = C:\Program Files\Microsoft Visual Studio\2022\Enterprise\VC\Tools\MSVC\14.41.34120\include;C:\Program Files\Microsoft Visual Studio\2022\Enterprise\VC\Tools\MSVC\14.41.34120\ATLMFC\include;C:\Program Files\Microsoft Visual Studio\2022\Enterprise\VC\Auxiliary\VS\include;C:\Program Files (x86)\Windows Kits\10\include\10.0.22621.0\ucrt;C:\Program Files (x86)\Windows Kits\10\\include\10.0.22621.0\\um;C:\Program Files (x86)\Windows Kits\10\\include\10.0.22621.0\\shared;C:\Program Files (x86)\Windows Kits\10\\include\10.0.22621.0\\winrt;C:\Program Files (x86)\Windows Kits\10\\include\10.0.22621.0\\cppwinrt;C:\Program Files (x86)\Windows Kits\NETFXSDK\4.8\include\um
FED_DSFLEX_LICENSE_CONFIG = 4084@lic-abaqus.aalto.fi
FED_LICENSE_SERVER_TYPE = DSFLEX
FLEXLM_TIMEOUT = 3000000
FOR_DIAGNOSTIC_LOG_FILE = fort.7
FOR_DUMP_CORE_FILE = TRUE
FOR_FORCE_STACK_TRACE = TRUE
FOR_IGNORE_EXCEPTIONS = TRUE
FRAMEWORK40VERSION = v4.0
FRAMEWORKDIR = C:\Windows\Microsoft.NET\Framework64\
FRAMEWORKDIR64 = C:\Windows\Microsoft.NET\Framework64\
FRAMEWORKVERSION = v4.0.30319
FRAMEWORKVERSION64 = v4.0.30319
FSHARPINSTALLDIR = C:\Program Files\Microsoft Visual Studio\2022\Enterprise\Common7\IDE\CommonExtensions\Microsoft\FSharp\Tools
GIT_ASKPASS = c:\Users\nguyenb5\AppData\Local\Programs\Microsoft VS Code\resources\app\extensions\git\dist\askpass.sh
HOMEDRIVE = Z:
HOMEPATH = \
HOMESHARE = \\home.org.aalto.fi\nguyenb5\data
HTMLHELPDIR = C:\Program Files (x86)\HTML Help Workshop
IFORT_COMPILER23 = C:\Program Files (x86)\Intel\oneAPI\compiler\2023.2.1\windows\
INCLUDE = C:\Program Files (x86)\Intel\oneAPI\mkl\latest\include;C:\Program Files (x86)\Intel\oneAPI\compiler\latest\include;C:\Program Files\Microsoft Visual Studio\2022\Enterprise\VC\Tools\MSVC\14.41.34120\include;C:\Program Files\Microsoft Visual Studio\2022\Enterprise\VC\Tools\MSVC\14.41.34120\ATLMFC\include;C:\Program Files\Microsoft Visual Studio\2022\Enterprise\VC\Auxiliary\VS\include;C:\Program Files (x86)\Windows Kits\10\include\10.0.22621.0\ucrt;C:\Program Files (x86)\Windows Kits\10\\include\10.0.22621.0\\um;C:\Program Files (x86)\Windows Kits\10\\include\10.0.22621.0\\shared;C:\Program Files (x86)\Windows Kits\10\\include\10.0.22621.0\\winrt;C:\Program Files (x86)\Windows Kits\10\\include\10.0.22621.0\\cppwinrt;C:\Program Files (x86)\Windows Kits\NETFXSDK\4.8\include\um
INTELFPGAOCLSDKROOT = C:\Program Files (x86)\Intel\oneAPI\compiler\latest\opt\oclfpga
INTEL_TARGET_ARCH = intel64
I_MPI_ONEAPI_ROOT = C:\Program Files (x86)\Intel\oneAPI\mpi\2021.10.0
JAVA_HOME = C:\Program Files\Eclipse Foundation\OpenJDK\
KMP_INIT_AT_FORK = FALSE
LANG = en_US.UTF-8
LIB = C:\Program Files (x86)\Intel\oneAPI\mkl\latest\lib;C:\Program Files (x86)\Intel\oneAPI\compiler\latest\opt\compiler\lib;C:\Program Files (x86)\Intel\oneAPI\compiler\latest\lib;C:\Program Files\Microsoft Visual Studio\2022\Enterprise\VC\Tools\MSVC\14.41.34120\ATLMFC\lib\x64;C:\Program Files\Microsoft Visual Studio\2022\Enterprise\VC\Tools\MSVC\14.41.34120\lib\x64;C:\Program Files (x86)\Windows Kits\NETFXSDK\4.8\lib\um\x64;C:\Program Files (x86)\Windows Kits\10\lib\10.0.22621.0\ucrt\x64;C:\Program Files (x86)\Windows Kits\10\\lib\10.0.22621.0\\um\x64
LIBPATH = C:\Program Files\Microsoft Visual Studio\2022\Enterprise\VC\Tools\MSVC\14.41.34120\ATLMFC\lib\x64;C:\Program Files\Microsoft Visual Studio\2022\Enterprise\VC\Tools\MSVC\14.41.34120\lib\x64;C:\Program Files\Microsoft Visual Studio\2022\Enterprise\VC\Tools\MSVC\14.41.34120\lib\x86\store\references;C:\Program Files (x86)\Windows Kits\10\UnionMetadata\10.0.22621.0;C:\Program Files (x86)\Windows Kits\10\References\10.0.22621.0;C:\Windows\Microsoft.NET\Framework64\v4.0.30319
LOCALAPPDATA = C:\Users\nguyenb5\AppData\Local
LOGONSERVER = \\DC02
LSTC_LICENSE = ansys
MKLROOT = C:\Program Files (x86)\Intel\oneAPI\mkl\latest
MKL_NUM_THREADS = 1
MP_NUMBER_OF_THREADS = 1
MSMPI_BENCHMARKS = C:\Program Files\Microsoft MPI\Benchmarks\
MSMPI_BIN = C:\Program Files\Microsoft MPI\Bin\
NETFXSDKDIR = C:\Program Files (x86)\Windows Kits\NETFXSDK\4.8\
NLSPATH = C:\Program Files (x86)\Intel\oneAPI\mkl\latest\share\locale\1033;
NUMBER_OF_PROCESSORS = 16
OCL_ICD_FILENAMES = C:\Program Files (x86)\Intel\oneAPI\compiler\latest\bin\intelocl64_emu.dll;C:\Program Files (x86)\Intel\oneAPI\compiler\latest\bin\intelocl64.dll
OMP_NUM_THREADS = 1
ONEDRIVE = C:\Users\nguyenb5\OneDrive - Aalto University
ONEDRIVECOMMERCIAL = C:\Users\nguyenb5\OneDrive - Aalto University
ORIGINAL_XDG_CURRENT_DESKTOP = undefined
OS = Windows_NT
PATH = C:\Users\nguyenb5\AppData\Local\Temp\nguyenb5_notched_plate_UEL_25816;C:\SIMULIA\EstProducts\2023\win_b64\tools\SMApy\python2.7\lib\site-packages\pywin32_system32;C:\SIMULIA\EstProducts\2023;C:\SIMULIA\EstProducts\2023\win_b64;C:\SIMULIA\EstProducts\2023\win_b64\code;C:\SIMULIA\EstProducts\2023\win_b64\code\bin;C:\SIMULIA\EstProducts\2023\win_b64\code\bin\SMAExternal;C:\SIMULIA\EstProducts\2023\win_b64\CAEresources;C:\SIMULIA\EstProducts\2023\win_b64\SMA;C:\SIMULIA\EstProducts\2023\win_b64\code\bin\SMAExternal\Interop;C:\SIMULIA\EstProducts\2023\win_b64\code\bin\SMAExternal\Elysium;C:\SIMULIA\EstProducts\2023\win_b64\tools\SMApy\python2.7;C:\SIMULIA\EstProducts\2023\win_b64\tools\SMApy\python2.7\lib;C:\SIMULIA\EstProducts\2023\win_b64\tools\SMApy\python2.7\DLLs;C:\Program Files (x86)\Intel\oneAPI\mkl\latest\bin;C:\Program Files (x86)\Intel\oneAPI\compiler\latest\bin;C:\Program Files (x86)\Intel\oneAPI\compiler\latest\opt\oclfpga\host\windows64\bin;C:\Program Files (x86)\Intel\oneAPI\compiler\latest\opt\oclfpga\bin;C:\Program Files\Microsoft Visual Studio\2022\Enterprise\VC\Tools\MSVC\14.41.34120\bin\HostX64\x64;C:\Program Files\Microsoft Visual Studio\2022\Enterprise\Common7\IDE\VC\VCPackages;C:\Program Files\Microsoft Visual Studio\2022\Enterprise\Common7\IDE\CommonExtensions\Microsoft\TestWindow;C:\Program Files\Microsoft Visual Studio\2022\Enterprise\Common7\IDE\CommonExtensions\Microsoft\TeamFoundation\Team Explorer;C:\Program Files\Microsoft Visual Studio\2022\Enterprise\MSBuild\Current\bin\Roslyn;C:\Program Files (x86)\Microsoft SDKs\Windows\v10.0A\bin\NETFX 4.8 Tools\x64\;C:\Program Files (x86)\HTML Help Workshop;C:\Program Files\Microsoft Visual Studio\2022\Enterprise\Common7\IDE\CommonExtensions\Microsoft\FSharp\Tools;C:\Program Files\Microsoft Visual Studio\2022\Enterprise\Team Tools\DiagnosticsHub\Collector;C:\Program Files\Microsoft Visual Studio\2022\Enterprise\Common7\IDE\Extensions\Microsoft\CodeCoverage.Console;C:\Program Files (x86)\Windows Kits\10\bin\10.0.22621.0\\x64;C:\Program Files (x86)\Windows Kits\10\bin\\x64;C:\Program Files\Microsoft Visual Studio\2022\Enterprise\\MSBuild\Current\Bin\amd64;C:\Windows\Microsoft.NET\Framework64\v4.0.30319;C:\Program Files\Microsoft Visual Studio\2022\Enterprise\Common7\IDE\;C:\Program Files\Microsoft Visual Studio\2022\Enterprise\Common7\Tools\;C:\Program Files\Eclipse Foundation\OpenJDK\bin;C:\Program Files (x86)\NVIDIA Corporation\PhysX\Common;C:\Program Files\Microsoft MPI\Bin\;C:\Program Files (x86)\Intel\oneAPI\mpi\latest\bin\;C:\SIMULIA\Commands;C:\WINDOWS\system32;C:\WINDOWS;C:\WINDOWS\System32\Wbem;C:\WINDOWS\System32\WindowsPowerShell\v1.0\;C:\WINDOWS\System32\OpenSSH\;C:\Program Files\dotnet\;C:\Program Files\Microsoft SQL Server\Client SDK\ODBC\110\Tools\Binn\;C:\Program Files (x86)\Microsoft SQL Server\120\Tools\Binn\;C:\Program Files\Microsoft SQL Server\120\Tools\Binn\;C:\Program Files\Microsoft SQL Server\120\DTS\Binn\;C:\Program Files (x86)\Windows Kits\8.1\Windows Performance Toolkit\;C:\Program Files (x86)\Windows Kits\10\Windows Performance Toolkit\;C:\Program Files\Microsoft SQL Server\Client SDK\ODBC\170\Tools\Binn\;C:\Program Files (x86)\Microsoft SQL Server\150\Tools\Binn\;C:\Program Files\Microsoft SQL Server\150\Tools\Binn\;C:\Program Files\Microsoft SQL Server\150\DTS\Binn\;C:\Program Files\Wolfram Research\WolframScript\;C:\ProgramData\chocolatey\bin;C:\Program Files\nodejs\;C:\Programs\Matlab\runtime\win64;C:\Programs\Matlab\bin;C:\Users\nguyenb5\AppData\Local\Microsoft\WindowsApps;C:\Users\nguyenb5\AppData\Local\Programs\Microsoft VS Code\bin;C:\Users\nguyenb5\AppData\Local\Programs\Git\cmd;\\home.org.aalto.fi\nguyenb5\data\MinGW\bin;C:\Program Files (x86)\Intel\oneAPI\compiler\2023.2.1\windows\bin\intel64_ia32;;C:\Users\nguyenb5\AppData\Roaming\npm;c:\Users\nguyenb5\.vscode\extensions\ms-python.debugpy-2025.6.0-win32-x64\bundled\scripts\noConfigScripts;c:\Users\nguyenb5\AppData\Roaming\Code\User\globalStorage\github.copilot-chat\debugCommand;;C:\Program Files\Microsoft Visual Studio\2022\Enterprise\Common7\IDE\CommonExtensions\Microsoft\CMake\CMake\bin;C:\Program Files\Microsoft Visual Studio\2022\Enterprise\Common7\IDE\CommonExtensions\Microsoft\CMake\Ninja;C:\Program Files\Microsoft Visual Studio\2022\Enterprise\Common7\IDE\VC\Linux\bin\ConnectionManagerExe;C:\Program Files\Microsoft Visual Studio\2022\Enterprise\VC\vcpkg;C:\Program Files (x86)\Intel\oneAPI\compiler\latest\lib\ocloc
PATHEXT = .COM;.EXE;.BAT;.CMD;.VBS;.VBE;.JS;.JSE;.WSF;.WSH;.MSC;.CPL
PKG_CONFIG_PATH = C:\Program Files (x86)\Intel\oneAPI\mkl\latest\lib\pkgconfig;C:\Program Files (x86)\Intel\oneAPI\compiler\latest\lib\pkgconfig;
PLATFORM = x64
PROCESSOR_ARCHITECTURE = AMD64
PROCESSOR_IDENTIFIER = Intel64 Family 6 Model 154 Stepping 3, GenuineIntel
PROCESSOR_LEVEL = 6
PROCESSOR_REVISION = 9a03
PROGRAMDATA = C:\ProgramData
PROGRAMFILES = C:\Program Files
PROGRAMFILES(X86) = C:\Program Files (x86)
PROGRAMW6432 = C:\Program Files
PROMPT = $P$G
PRO_COMM_MSG_EXE = C:\Program Files\PTC\Creo 9.0.7.0\Common Files\x86e_win64\obj\pro_comm_msg.exe
PSMODULEPATH = \\home.org.aalto.fi\nguyenb5\data\Documents\WindowsPowerShell\Modules;C:\Program Files\WindowsPowerShell\Modules;C:\WINDOWS\system32\WindowsPowerShell\v1.0\Modules;C:\Program Files (x86)\Microsoft SQL Server\120\Tools\PowerShell\Modules\;C:\Program Files (x86)\Microsoft SQL Server\150\Tools\PowerShell\Modules\
PUBLIC = C:\Users\Public
PYDEVD_DISABLE_FILE_VALIDATION = 1
PYTHONPATH = C:\SIMULIA\EstProducts\2023\win_b64\code\python2.7\lib;C:\SIMULIA\EstProducts\2023\win_b64\tools\SMApy\python2.7\lib;C:\SIMULIA\EstProducts\2023\win_b64\tools\SMApy\python2.7\lib\lib-tk;C:\SIMULIA\EstProducts\2023\win_b64\tools\SMApy\python2.7\lib\site-packages;C:\SIMULIA\EstProducts\2023\win_b64\tools\SMApy\python2.7\DLLs;.;C:\SIMULIA\EstProducts\2023;C:\SIMULIA\EstProducts\2023\win_b64;C:\SIMULIA\EstProducts\2023\win_b64\code;C:\SIMULIA\EstProducts\2023\win_b64\code\bin;C:\SIMULIA\EstProducts\2023\win_b64\code\bin\SMAExternal;C:\SIMULIA\EstProducts\2023\win_b64\CAEresources;C:\SIMULIA\EstProducts\2023\win_b64\SMA
PYTHONUNBUFFERED = nobuffering
PYVERDIRNAME = python2.7
SCRIPT_NAME = vars.bat
SESSIONNAME = Console
SMASVT_ROOT_PATH = C:\SIMULIA\EstProducts\2023;C:\SIMULIA\EstProducts\2023\win_b64;C:\SIMULIA\EstProducts\2023\win_b64\code;C:\SIMULIA\EstProducts\2023\win_b64\code\bin;C:\SIMULIA\EstProducts\2023\win_b64\code\bin\SMAExternal;C:\SIMULIA\EstProducts\2023\win_b64\CAEresources;C:\SIMULIA\EstProducts\2023\win_b64\SMA
SYSTEMDRIVE = C:
SYSTEMROOT = C:\WINDOWS
TEMP = C:\Users\nguyenb5\AppData\Local\Temp
TERM_PROGRAM = vscode
TERM_PROGRAM_VERSION = 1.99.0
TMP = C:\Users\nguyenb5\AppData\Local\Temp\nguyenb5_notched_plate_UEL_25816
TMPDIR = C:\Users\nguyenb5\AppData\Local\Temp\nguyenb5_notched_plate_UEL_25816
UATDATA = C:\WINDOWS\CCM\UATData\D9F8C395-CAB8-491d-B8AC-179A1FE1BE77
UCRTVERSION = 10.0.22621.0
UNIVERSALCRTSDKDIR = C:\Program Files (x86)\Windows Kits\10\
USERDNSDOMAIN = ORG.AALTO.FI
USERDOMAIN = AALTO
USERDOMAIN_ROAMINGPROFILE = AALTO
USERNAME = nguyenb5
USERPROFILE = C:\Users\nguyenb5
USE_INTEL_LLVM = 0
VARSDIR = C:\Program Files (x86)\Intel\oneAPI\compiler\latest\env\
VCIDEINSTALLDIR = C:\Program Files\Microsoft Visual Studio\2022\Enterprise\Common7\IDE\VC\
VCINSTALLDIR = C:\Program Files\Microsoft Visual Studio\2022\Enterprise\VC\
VCPKG_ROOT = C:\Program Files\Microsoft Visual Studio\2022\Enterprise\VC\vcpkg
VCTOOLSINSTALLDIR = C:\Program Files\Microsoft Visual Studio\2022\Enterprise\VC\Tools\MSVC\14.41.34120\
VCTOOLSREDISTDIR = C:\Program Files\Microsoft Visual Studio\2022\Enterprise\VC\Redist\MSVC\14.40.33807\
VCTOOLSVERSION = 14.41.34120
VISUALSTUDIOVERSION = 17.0
VS140COMNTOOLS = C:\Program Files (x86)\Microsoft Visual Studio 14.0\Common7\Tools\
VS170COMNTOOLS = C:\Program Files\Microsoft Visual Studio\2022\Enterprise\Common7\Tools\
VSCMD_ARG_APP_PLAT = Desktop
VSCMD_ARG_HOST_ARCH = x64
VSCMD_ARG_TGT_ARCH = x64
VSCMD_VER = 17.11.5
VSCODE_DEBUGPY_ADAPTER_ENDPOINTS = c:\Users\nguyenb5\.vscode\extensions\ms-python.debugpy-2025.6.0-win32-x64\.noConfigDebugAdapterEndpoints\endpoint-0ed1891278ddac5b.txt
VSCODE_GIT_ASKPASS_EXTRA_ARGS = 
VSCODE_GIT_ASKPASS_MAIN = c:\Users\nguyenb5\AppData\Local\Programs\Microsoft VS Code\resources\app\extensions\git\dist\askpass-main.js
VSCODE_GIT_ASKPASS_NODE = C:\Users\nguyenb5\AppData\Local\Programs\Microsoft VS Code\Code.exe
VSCODE_GIT_IPC_HANDLE = \\.\pipe\vscode-git-e8681ad06a-sock
VSCODE_INJECTION = 1
VSINSTALLDIR = C:\Program Files\Microsoft Visual Studio\2022\Enterprise\
WINDIR = C:\WINDOWS
WINDOWSLIBPATH = C:\Program Files (x86)\Windows Kits\10\UnionMetadata\10.0.22621.0;C:\Program Files (x86)\Windows Kits\10\References\10.0.22621.0
WINDOWSSDKBINPATH = C:\Program Files (x86)\Windows Kits\10\bin\
WINDOWSSDKDIR = C:\Program Files (x86)\Windows Kits\10\
WINDOWSSDKLIBVERSION = 10.0.22621.0\
WINDOWSSDKVERBINPATH = C:\Program Files (x86)\Windows Kits\10\bin\10.0.22621.0\
WINDOWSSDKVERSION = 10.0.22621.0\
WINDOWSSDK_EXECUTABLEPATH_X64 = C:\Program Files (x86)\Microsoft SDKs\Windows\v10.0A\bin\NETFX 4.8 Tools\x64\
WINDOWSSDK_EXECUTABLEPATH_X86 = C:\Program Files (x86)\Microsoft SDKs\Windows\v10.0A\bin\NETFX 4.8 Tools\
ZES_ENABLE_SYSMAN = 1
_NT_SYMBOL_PATH = C:\SIMULIA\EstProducts\2023;C:\SIMULIA\EstProducts\2023\win_b64;C:\SIMULIA\EstProducts\2023\win_b64\code;C:\SIMULIA\EstProducts\2023\win_b64\code\bin;C:\SIMULIA\EstProducts\2023\win_b64\code\bin\SMAExternal;C:\SIMULIA\EstProducts\2023\win_b64\CAEresources;C:\SIMULIA\EstProducts\2023\win_b64\SMA;C:\SIMULIA\EstProducts\2023\win_b64\code\bin\SMAExternal\Interop;C:\SIMULIA\EstProducts\2023\win_b64\code\bin\SMAExternal\Elysium;C:\SIMULIA\EstProducts\2023\win_b64\tools\SMApy\python2.7;C:\SIMULIA\EstProducts\2023\win_b64\tools\SMApy\python2.7\lib;C:\SIMULIA\EstProducts\2023\win_b64\tools\SMApy\python2.7\DLLs
__DOTNET_ADD_64BIT = 1
__DOTNET_PREFERRED_BITNESS = 64
__MS_VC_INSTALL_PATH = C:\Program Files\Microsoft Visual Studio\2022\Enterprise\VC\Tools\MSVC\14.41.34120\
__VSCMD_PREINIT_PATH = C:\Program Files\Eclipse Foundation\OpenJDK\bin;C:\Program Files (x86)\NVIDIA Corporation\PhysX\Common;C:\Program Files\Microsoft MPI\Bin\;C:\Program Files (x86)\Intel\oneAPI\mpi\latest\bin\;C:\Program Files (x86)\Intel\oneAPI\mpi\latest\bin\release\;C:\Program Files (x86)\Intel\oneAPI\mpi\latest\libfabric\bin\;C:\Program Files (x86)\Intel\oneAPI\mpi\latest\libfabric\bin\utils\;C:\Program Files (x86)\Intel\oneAPI\compiler\latest\windows\redist\intel64_win\compiler;C:\Program Files (x86)\Intel\oneAPI\compiler\latest\windows\redist\ia32_win\compiler;C:\SIMULIA\Commands;C:\WINDOWS\system32;C:\WINDOWS;C:\WINDOWS\System32\Wbem;C:\WINDOWS\System32\WindowsPowerShell\v1.0\;C:\WINDOWS\System32\OpenSSH\;C:\Program Files\dotnet\;C:\Program Files\Microsoft SQL Server\Client SDK\ODBC\110\Tools\Binn\;C:\Program Files (x86)\Microsoft SQL Server\120\Tools\Binn\;C:\Program Files\Microsoft SQL Server\120\Tools\Binn\;C:\Program Files\Microsoft SQL Server\120\DTS\Binn\;C:\Program Files (x86)\Windows Kits\8.1\Windows Performance Toolkit\;C:\Program Files (x86)\Windows Kits\10\Windows Performance Toolkit\;C:\Program Files\Microsoft SQL Server\Client SDK\ODBC\170\Tools\Binn\;C:\Program Files (x86)\Microsoft SQL Server\150\Tools\Binn\;C:\Program Files\Microsoft SQL Server\150\Tools\Binn\;C:\Program Files\Microsoft SQL Server\150\DTS\Binn\;C:\Program Files\Wolfram Research\WolframScript\;C:\ProgramData\chocolatey\bin;C:\Program Files\nodejs\;C:\Programs\Matlab\runtime\win64;C:\Programs\Matlab\bin;C:\Program Files\SAM\External\WinRAR;C:\Users\nguyenb5\AppData\Local\Microsoft\WindowsApps;C:\Users\nguyenb5\AppData\Local\Programs\Microsoft VS Code\bin;C:\Users\nguyenb5\AppData\Local\Programs\Git\cmd;Z:\MinGW\bin;C:\Program Files (x86)\Intel\oneAPI\compiler\2023.2.1\windows\bin\intel64_ia32;C:\SIMULIA\Commands;C:\Users\nguyenb5\AppData\Roaming\npm;c:\Users\nguyenb5\.vscode\extensions\ms-python.debugpy-2025.6.0-win32-x64\bundled\scripts\noConfigScripts;c:\Users\nguyenb5\AppData\Roaming\Code\User\globalStorage\github.copilot-chat\debugCommand;C:\Program Files (x86)\Intel\oneAPI\compiler\latest\windows\bin\intel64;
decfort_dump_flag = TRUE

# --------------- Execution Options -----------------
SIMExt = .sim
aba_jle_exclusions = {'inertiaReliefPerturbationLoadCases': {'inertiarelief': ON, 'loadcases': '5', 'perturbation': ON}}
aba_jle_std_direct = 10,20
aba_jle_std_direct_memlimit = 8gb
aba_jle_std_direct_reqcpus = 32
aba_jle_std_iterative = 4
aba_jle_std_mbld = 6,12,24,48
aba_jle_xpl_all = 1
aba_timing = 1
abaquslm_license_file = 4084@lic-abaqus.aalto.fi
adaptiveMesh = OFF
ams = OFF
analysisType = STANDARD
applicationName = analysis
aqua = OFF
ask_delete = OFF
auto_calculate = ANALYSIS
auto_convert = ON
beamSectGen = OFF
biorid = OFF
cae_local_host = localhost
cavityTypes = []
cavparallel = OFF
compile_cpp = ['cl', '/c', '/W0', '/MD', '/TP', '/EHsc', '/DNDEBUG', '/DWIN32', '/DTP_IP', '/D_CONSOLE', '/DNTI', '/DFLT_LIC', '/DOL_DOC', '/D__LIB__', '/DHKS_NT', '/D_WINDOWS_SOURCE', '/DFAR=', '/D_WINDOWS', '/DABQ_WIN86_64', '%P', '/I%I', '/IC:\\SIMULIA\\EstProducts\\2023']
compile_fmu = ['win64CmpWrp', '-m64', '-msvc9', 'cl', '/LD', '/D_WINDOWS', '/TC', '/W0', '/I%I', '/IC:\\SIMULIA\\EstProducts\\2023']
compile_fortran = ['ifort', '/c', '/fpp', '/extend-source', '/DABQ_WIN86_64', '/DABQ_FORTRAN', '/iface:cref', '/recursive', '/Qauto', '/align:array64byte', '/Qpc64', '/Qprec-div', '/Qprec-sqrt', '/Qfma-', '/fp:precise', '/Qimf-arch-consistency:true', '/Qfp-speculation:safe', '/Qprotect-parens', '/Qfp-stack-check', '/reentrancy:threaded', '/QxSSE3', '/QaxAVX', '/include:%I', '/include:C:\\SIMULIA\\EstProducts\\2023', '%P', '/names:lowercase', '/Qmkl:sequential']
complexFrequency = OFF
connect_timeout = 30
contact = OFF
cosimulation = OFF
coupledProcedure = ON
cpus = 2
cpusValidated = True
cse = OFF
cyclicSymmetryModel = OFF
directCyclic = OFF
direct_port = None
direct_solver = SMP
direct_solver_use_default = 1
doc_root = http://help.3ds.com
domains = 1
dsa = OFF
dynStepSenseAdj = OFF
dynamic = OFF
exciteBodies = []
externalField = OFF
externalFieldCSEAux = OFF
externalFieldExtList = ['.sim', '.SMAManifest']
externalFieldFiles = []
externalFieldSimReader = None
fieldImport = OFF
filPrt = []
fils = []
finitesliding = OFF
flexibleBody = OFF
foundation = OFF
freqSimReq = OFF
geostatic = OFF
heatTransfer = OFF
impJobExpVars = {}
importJobList = []
importSim = OFF
importer = OFF
importerParts = OFF
includes = ['processing_input/nodes.inc', 'processing_input/elements_UEL.inc', 'processing_input/elements_VISUAL.inc']
indir = C:\LocalUserData\User-data\nguyenb5\Abaqus-UEL-Multiphysics\(UEL) cube_C3D8T_multiphysics
inertiarelief = OFF
initialConditionsFile = OFF
input = notched_plate_UEL
inputFormat = INP
interactive = None
interpolExtList = ['.odb', '.sim', '.SMAManifest']
jleJobExcluded = False
job = notched_plate_UEL
keyword_licenses = []
lanczos = OFF
lastmessageonly = OFF
libs = []
license_server_type = FLEXNET
link_exe = ['LINK', '/nologo', '/INCREMENTAL:NO', '/subsystem:console', '/machine:AMD64', '/STACK:20000000', '/NODEFAULTLIB:LIBC.LIB', '/NODEFAULTLIB:LIBCMT.LIB', '/DEFAULTLIB:OLDNAMES.LIB', '/DEFAULTLIB:LIBIFCOREMD.LIB', '/DEFAULTLIB:LIBIFPORTMD.LIB', '/DEFAULTLIB:LIBMMD.LIB', '/DEFAULTLIB:kernel32.lib', '/DEFAULTLIB:user32.lib', '/DEFAULTLIB:advapi32.lib', '/FIXED:NO', '/LARGEADDRESSAWARE', '/out:%J', '%F', '%M', '%L', '%B', '%O', 'oldnames.lib', 'user32.lib', 'ws2_32.lib', 'netapi32.lib', 'advapi32.lib', 'msvcrt.lib', 'vcruntime.lib', 'ucrt.lib']
link_sl = ['LINK', '/nologo', '/NOENTRY', '/INCREMENTAL:NO', '/subsystem:console', '/machine:AMD64', '/NODEFAULTLIB:LIBC.LIB', '/NODEFAULTLIB:LIBCMT.LIB', '/DEFAULTLIB:OLDNAMES.LIB', '/DEFAULTLIB:LIBIFCOREMD.LIB', '/DEFAULTLIB:LIBIFPORTMD.LIB', '/DEFAULTLIB:LIBMMD.LIB', '/DEFAULTLIB:kernel32.lib', '/DEFAULTLIB:user32.lib', '/DEFAULTLIB:advapi32.lib', '/FIXED:NO', '/dll', '/def:%E', '/out:%U', '%F', '%A', '%L', '%B', 'oldnames.lib', 'user32.lib', 'ws2_32.lib', 'netapi32.lib', 'advapi32.lib', 'msvcrt.lib', 'vcruntime.lib', 'ucrt.lib']
listener_name = None
listener_resource = None
lmsuspend = None
magnetostatic = OFF
massDiffusion = OFF
materialresponse = OFF
message = OFF
messaging_mechanism = DIRECT
modifiedTet = OFF
moldflowFiles = []
moldflowMaterial = OFF
mp_environment_export = ('ABAQUSLM_LICENSE_FILE', 'ABAQUS_CCI_DEBUG', 'ABAQUS_CSE_CURRCONFIGMAPPING', 'ABAQUS_CSE_RELTIMETOLERANCE', 'ABAQUS_DEVL_MODE', 'ABAQUS_LANG', 'ABAQUS_MPF_DIAGNOSTIC_LEVEL', 'ABA_ADM_ALIGNMENT', 'ABA_ADM_MINIMUMDECREASE', 'ABA_ADM_MINIMUMINCREASE', 'ABA_ALL_ADB_IN_TMPDIR', 'ABA_CM_BUFFERING', 'ABA_CM_BUFFERING_LIMIT', 'ABA_CUTOFF_SLAVEFACET_ANGLE', 'ABA_DIRECT_SOLVER_PATH', 'ABA_DMPSOLVER_BWDPARALLELOFF', 'ABA_ELP_SURFACE_SPLIT', 'ABA_ELP_SUSPEND', 'ABA_ENABLE_DYNELEMS', 'ABA_EVOLVING_JOBS', 'ABA_EXT_SIMOUTPUT', 'ABA_GCONT_POOL_SIZE', 'ABA_HOME', 'ABA_INC_DEFAULT', 'ABA_ITERATIVE_SOLVER_VERBOSE', 'ABA_MEMORY_MODE', 'ABA_MPI_MESSAGE_TRACKING', 'ABA_MPI_VERBOSE_LEVEL', 'ABA_NEW_STOS_COHESIVE_APPROX_CONTACT', 'ABA_NEW_STOS_COHESIVE_CONTACT', 'ABA_NUM_INTEGRATION_POINTS_LINE3D', 'ABA_SHARED_SAVEDIR', 'ABA_PATH', 'ABA_PRE_DECOMPOSITION', 'ABA_PRINT_DYNELEMS', 'ABA_REMOVE_OVERCONSTRAINED_TIES', 'ABA_RESOURCE_MONITOR', 'ABA_RESOURCE_USEMALLINFO', 'ABA_RESULTS_OVERLAY', 'ABA_STD_ACTIVATE_CONTACT_FOR_AM', 'ABA_STD_MAX_SEARCH_DISTANCE', 'ABA_SYMBOLIC_GENERALCOLLAPSE', 'ABA_SYMBOLIC_GENERAL_MAXCLIQUERANK', 'ABA_TOSCA_JOB_STALL', 'ABA_TOSCA_OVERLAY', 'ABA_TOSCA_PROTOTYPE', 'ABA_TOSCA_SEQFILES', 'ABA_TOSCA_STALL', 'ABA_UNIT_INDEPENDENT_CONTACT', 'ABA_USE_NEW_STOS_SST_FORMULATION', 'ABA_USE_NEWTRACKDB', 'ABA_USE_OLD_SURF_TO_SURF_CONTACT', 'ABA_POTENTIAL_DEV', 'ABA_XPL_ALLMEMCHECKS', 'ABA_XPL_DEBUG', 'ABQLMHANGLIMIT', 'ABQLMIMPL', 'ABQLMQUEUE', 'ABQLMUSER', 'ABQ_ACTIVATE_PTK', 'ABQ_BYPASS_UNCONNECTED_REGION_CHECK', 'ABQ_CRTMALLOC', 'ABQ_DATACHECK', 'ABQ_DLALLOCATOR', 'ABQ_PATTERN', 'ABQ_PATTERN_VALUE', 'ABQ_RECOVER', 'ABQ_RESTART', 'ABQ_SKIP_ANALYTIC_SURF_GCONT', 'ABQ_SPLITFILE', 'ABQ_STD_ACCUM_CSLIP', 'ABQ_STD_ACTIVATE_BEAM_ROTATION', 'ABQ_STD_ALLOW_SURFACE_TO_BEAM', 'ABQ_SUPERELASTIC_MODIFIED', 'ABQ_GC_HEAT', 'ABQ_GC_SMALL', 'ABQ_UREG_USE_CONTACT_ELEM', 'ABQ_XFEM_POREPRESSURE', 'ABQ_XPL_DSMABORT', 'ABQ_XPL_PARTITIONSIZE', 'ABQ_XPL_WINDOWDUMP', 'ACML_FAST_MALLOC', 'ACML_FAST_MALLOC_CHUNK_SIZE', 'ACML_FAST_MALLOC_DEBUG', 'ACML_FAST_MALLOC_MAX_CHUNKS', 'ADB_USE_OLDSLDB', 'ADB_USE_NEWSLDB', 'CCI_RENDEZVOUS', 'DOMAIN', 'DOMAIN_CPUS', 'DOUBLE_PRECISION', 'DSLS_AUTH_PATHNAME', 'DSLS_CONFIG', 'FI_PROVIDER', 'FI_PROVIDER_PATH', 'FLEXLM_DIAGNOSTICS', 'FOR0006', 'FOR0064', 'FOR_DISABLE_DIAGNOSTIC_DISPLAY', 'FOR_IGNORE_EXCEPTIONS', 'I_MPI_FABRICS', 'I_MPI_OFI_PROVIDER', 'IPATH_NO_CPUAFFINITY', 'LD_PRELOAD', 'MALLOC_MMAP_THRESHOLD_', 'MKL_DYNAMIC', 'MKL_NUM_THREADS', 'MPCCI_CODEID', 'MPCCI_DEBUG', 'MPCCI_JOBID', 'MPCCI_NETDEVICE', 'MPCCI_SERVER', 'MPCCI_TINFO', 'MPC_GANG', 'MPIEXEC_AFFINITY_TABLE', 'MPI_FLAGS', 'MPI_FLUSH_FCACHE', 'MPI_PROPAGATE_TSTP', 'MPI_SOCKBUFSIZE', 'MPI_USE_MALLOPT_MMAP_MAX', 'MPI_USE_MALLOPT_MMAP_THRESHOLD', 'MPI_USE_MALLOPT_SBRK_PROTECTION', 'MPI_WORKDIR', 'MPIR_CVAR_CH4_OFI_TAG_BITS', 'MPIR_CVAR_CH4_OFI_RANK_BITS', 'MP_NUMBER_OF_THREADS', 'MPICH_ND_ZCOPY_THRESHOLD', 'NCPUS', 'OMP_DYNAMIC', 'OMP_NUM_THREADS', 'OUTDIR', 'PAIDUP', 'PARALLEL_METHOD', 'RAIDEV_NDREG_LAZYMEM', 'SMA_PARENT', 'SMA_PLATFORM', 'SMA_WS', 'SIMULIA_COSIN_PATH', 'STD_INITSTRESS_FLAG', 'STD_INITGEOICS_FLAG', 'UCX_IB_MLX5_DEVX', 'XPL_HMP_COMMTHREAD')
mp_file_system = (SHARED, SHARED)
mp_head_node = ('l23-0203.org.aalto.fi', 'l23-0203', '130.233.70.99')
mp_host_list = (('l23-0203', 2),)
mp_mode = THREADS
mp_mode_requested = MPI
mp_mpiCommand = []
mp_mpi_implementation = NATIVE
mp_mpi_searchpath = ['Microsoft MPI', 'Microsoft HPC Pack', 'Microsoft HPC Pack 2008 R2', 'Microsoft HPC Pack 2008', 'Microsoft HPC Pack 2008 SDK', 'Microsoft HPC Pack 2012']
mp_mpi_validate = OFF
mp_mpirun_path = C:\Program Files\Microsoft MPI\bin\mpiexec.exe
mp_rsh_command = dummy %H -l nguyenb5 -n %C
mp_user = source_code/UEL_multiphysics.f90
multiphysics = OFF
noDmpDirect = []
noMultiHost = []
noMultiHostElemLoop = []
no_domain_check = 1
numLoadCases = 0
onCaeGraphicsStartup = <function onCaeGraphicsStartup at 0x00000167F02ACDD8>
onJobCompletion = []
onJobStartup = []
onestepinverse = OFF
outdir = C:\LocalUserData\User-data\nguyenb5\Abaqus-UEL-Multiphysics\(UEL) cube_C3D8T_multiphysics
outputKeywords = ON
parameterized = OFF
partsAndAssemblies = ON
parval = OFF
pgdHeatTransfer = OFF
plugin_central_dir = C:\SIMULIA\CAE\plugins\2023
postOutput = OFF
preDecomposition = ON
queues = {}
randomResponse = OFF
restart = OFF
restartEndStep = OFF
restartIncrement = 0
restartStep = 0
restartWrite = OFF
resultsFormat = ODB
rezone = OFF
runCalculator = OFF
simMode = SFS
simpackBodies = []
simwrk = C:\LocalUserData\User-data\nguyenb5\Abaqus-UEL-Multiphysics\(UEL) cube_C3D8T_multiphysics\notched_plate_UEL
soils = OFF
soliter = OFF
solverTypes = ['DIRECT']
ssd = OFF
ssdCheckOK = False
standard_parallel = ALL
staticNonlinear = OFF
steadyStateTransport = OFF
step = ON
stepSenseAdj = OFF
stressExtList = ['.odb', '.sim', '.SMAManifest']
subGen = OFF
subGenResidual = OFF
submodel = OFF
substrLibDefs = OFF
substructure = OFF
symModGenModel = OFF
symmetricModelGeneration = OFF
symmetricResultsTransfer = OFF
tempNoInterpolExtList = ['.fil', '.odb', '.sim', '.SMAManifest']
thermal = OFF
tmpdir = C:\Users\nguyenb5\AppData\Local\Temp\nguyenb5_notched_plate_UEL_25816
tracer = OFF
transientSensitivity = OFF
umbrella_host = L23-0203
umbrella_port = 54578
unconnected_regions = OFF
unfold_param = OFF
unsymm = OFF
user = source_code/UEL_multiphysics.f90
verbose = 1
visco = OFF
xplSelect = OFF

# --------------- Execution Environment -----------------
ABAQUSLM_LICENSE_FILE = 4084@lic-abaqus.aalto.fi
ABAQUS_LANG = English_United States.1252
ABAQUS_PY_TRANSLATION_DICTIONARY = Configuration/Xresources/en_US/en_US_PyDict.py
ABAQUS_SEQ = 2023_07_21-20.45.57 RELr425 183702
ABAQUS_TRANSLATION_DICTIONARY = Configuration/Xresources/en_US/en_US_Dict.py
ABA_BLA_LIBRARY_PATH = C:\SIMULIA\EstProducts\2023;C:\SIMULIA\EstProducts\2023\win_b64;C:\SIMULIA\EstProducts\2023\win_b64\code;C:\SIMULIA\EstProducts\2023\win_b64\code\bin;C:\SIMULIA\EstProducts\2023\win_b64\code\bin\SMAExternal;C:\SIMULIA\EstProducts\2023\win_b64\CAEresources;C:\SIMULIA\EstProducts\2023\win_b64\SMA;C:\SIMULIA\EstProducts\2023\win_b64\code\bin\SMAExternal\Interop;C:\SIMULIA\EstProducts\2023\win_b64\code\bin\SMAExternal\Elysium;C:\SIMULIA\EstProducts\2023\win_b64\tools\SMApy\python2.7;C:\SIMULIA\EstProducts\2023\win_b64\tools\SMApy\python2.7\lib;C:\SIMULIA\EstProducts\2023\win_b64\tools\SMApy\python2.7\DLLs
ABA_COMMAND = C:\SIMULIA\EstProducts\2023\win_b64\code\bin\SMALauncher.exe
ABA_DRIVERNAME = abq2023hf4.bat
ABA_HOME = C:\SIMULIA\EstProducts\2023\win_b64
ABA_LIBRARY_PATHNAME = PATH
ABA_MEMORY_MODE = 0
ABA_MPI_LIBRARY_PATH = C:\SIMULIA\EstProducts\2023;C:\SIMULIA\EstProducts\2023\win_b64;C:\SIMULIA\EstProducts\2023\win_b64\code;C:\SIMULIA\EstProducts\2023\win_b64\code\bin;C:\SIMULIA\EstProducts\2023\win_b64\code\bin\SMAExternal;C:\SIMULIA\EstProducts\2023\win_b64\CAEresources;C:\SIMULIA\EstProducts\2023\win_b64\SMA;C:\SIMULIA\EstProducts\2023\win_b64\code\bin\SMAExternal\Interop;C:\SIMULIA\EstProducts\2023\win_b64\code\bin\SMAExternal\Elysium;C:\SIMULIA\EstProducts\2023\win_b64\tools\SMApy\python2.7;C:\SIMULIA\EstProducts\2023\win_b64\tools\SMApy\python2.7\lib;C:\SIMULIA\EstProducts\2023\win_b64\tools\SMApy\python2.7\DLLs
ABA_PATH = C:\SIMULIA\EstProducts\2023;C:\SIMULIA\EstProducts\2023\win_b64;C:\SIMULIA\EstProducts\2023\win_b64\code;C:\SIMULIA\EstProducts\2023\win_b64\code\bin;C:\SIMULIA\EstProducts\2023\win_b64\code\bin\SMAExternal;C:\SIMULIA\EstProducts\2023\win_b64\CAEresources;C:\SIMULIA\EstProducts\2023\win_b64\SMA
ABA_PATH_BASE = C:\SIMULIA\EstProducts\2023\win_b64;
ABQINFO = C:\SIMULIA\EstProducts\2023\win_b64\SMA\info\
ABQLMHANGLIMIT = 0
ABQLMIMPL = FLEXNET
ABQLMQUEUE = 30
ABQLMUSER = nguyenb5
ABQ_DLALLOCATOR = 1
ALLUSERSPROFILE = C:\ProgramData
ALTAIR_LICENSE_PATH = LZUO8-4LN0D-ZR43P-FT4YV;LZUO8-4LN0D-ZR43P-FT4YV
ANSYS_LSW_DOC = C:\Program Files\LS-DYNA Suite R14 Student\documentation\
ANSYS_LSW_LSDYNA = C:\Program Files\LS-DYNA Suite R14 Student\lsdyna\ls-dyna_smp_d_R14.1.1s_1-gef50e1efb1_winx64_ifort190.exe
ANSYS_LSW_LSPP = C:\Program Files\LS-DYNA Suite R14 Student\lspp\lsprepost4.10_x64.exe
APPDATA = C:\Users\nguyenb5\AppData\Roaming
BUNDLED_DEBUGPY_PATH = c:\Users\nguyenb5\.vscode\extensions\ms-python.debugpy-2025.6.0-win32-x64\bundled\libs\debugpy
CATCOMMANDPATH = C:\SIMULIA\EstProducts\2023\win_b64\code\command
CATDICTIONARYPATH = C:\SIMULIA\EstProducts\2023\win_b64\code\dictionary
CHOCOLATEYINSTALL = C:\ProgramData\chocolatey
CHOCOLATEYLASTPATHUPDATE = 133712359850823357
CHROME_CRASHPAD_PIPE_NAME = \\.\pipe\crashpad_2028_TYKNWZQBDDUBMOLK
CMAKE_PREFIX_PATH = C:\Program Files (x86)\Intel\oneAPI\compiler\latest;
CMPLR_ROOT = C:\Program Files (x86)\Intel\oneAPI\compiler\latest
COLORTERM = truecolor
COMMANDPROMPTTYPE = Native
COMMONPROGRAMFILES = C:\Program Files\Common Files
COMMONPROGRAMFILES(X86) = C:\Program Files (x86)\Common Files
COMMONPROGRAMW6432 = C:\Program Files\Common Files
COMPUTERNAME = L23-0203
COMSPEC = C:\WINDOWS\system32\cmd.exe
COVERAGE_RCFILE = C:\SIMULIA\EstProducts\2023\win_b64\SMA\site\pyCoverageConfig.env
CPATH = C:\Program Files (x86)\Intel\oneAPI\mkl\latest\include;C:\Program Files (x86)\Intel\oneAPI\compiler\latest\include;C:\Program Files (x86)\Intel\oneAPI\compiler\latest\opt\oclfpga\include;
CUSTOMWORKSPACE = 
DEVENVDIR = C:\Program Files\Microsoft Visual Studio\2022\Enterprise\Common7\IDE\
DRIVERDATA = C:\Windows\System32\Drivers\DriverData
DSY_TENANT = OnPremise
EXTENSIONSDKDIR = C:\Program Files (x86)\Microsoft SDKs\Windows Kits\10\ExtensionSDKs
EXTERNAL_INCLUDE = C:\Program Files\Microsoft Visual Studio\2022\Enterprise\VC\Tools\MSVC\14.41.34120\include;C:\Program Files\Microsoft Visual Studio\2022\Enterprise\VC\Tools\MSVC\14.41.34120\ATLMFC\include;C:\Program Files\Microsoft Visual Studio\2022\Enterprise\VC\Auxiliary\VS\include;C:\Program Files (x86)\Windows Kits\10\include\10.0.22621.0\ucrt;C:\Program Files (x86)\Windows Kits\10\\include\10.0.22621.0\\um;C:\Program Files (x86)\Windows Kits\10\\include\10.0.22621.0\\shared;C:\Program Files (x86)\Windows Kits\10\\include\10.0.22621.0\\winrt;C:\Program Files (x86)\Windows Kits\10\\include\10.0.22621.0\\cppwinrt;C:\Program Files (x86)\Windows Kits\NETFXSDK\4.8\include\um
FED_DSFLEX_LICENSE_CONFIG = 4084@lic-abaqus.aalto.fi
FED_LICENSE_SERVER_TYPE = DSFLEX
FLEXLM_TIMEOUT = 3000000
FOR_DIAGNOSTIC_LOG_FILE = fort.7
FOR_DUMP_CORE_FILE = TRUE
FOR_FORCE_STACK_TRACE = TRUE
FOR_IGNORE_EXCEPTIONS = TRUE
FRAMEWORK40VERSION = v4.0
FRAMEWORKDIR = C:\Windows\Microsoft.NET\Framework64\
FRAMEWORKDIR64 = C:\Windows\Microsoft.NET\Framework64\
FRAMEWORKVERSION = v4.0.30319
FRAMEWORKVERSION64 = v4.0.30319
FSHARPINSTALLDIR = C:\Program Files\Microsoft Visual Studio\2022\Enterprise\Common7\IDE\CommonExtensions\Microsoft\FSharp\Tools
GIT_ASKPASS = c:\Users\nguyenb5\AppData\Local\Programs\Microsoft VS Code\resources\app\extensions\git\dist\askpass.sh
HOMEDRIVE = Z:
HOMEPATH = \
HOMESHARE = \\home.org.aalto.fi\nguyenb5\data
HTMLHELPDIR = C:\Program Files (x86)\HTML Help Workshop
IFORT_COMPILER23 = C:\Program Files (x86)\Intel\oneAPI\compiler\2023.2.1\windows\
INCLUDE = C:\Program Files (x86)\Intel\oneAPI\mkl\latest\include;C:\Program Files (x86)\Intel\oneAPI\compiler\latest\include;C:\Program Files\Microsoft Visual Studio\2022\Enterprise\VC\Tools\MSVC\14.41.34120\include;C:\Program Files\Microsoft Visual Studio\2022\Enterprise\VC\Tools\MSVC\14.41.34120\ATLMFC\include;C:\Program Files\Microsoft Visual Studio\2022\Enterprise\VC\Auxiliary\VS\include;C:\Program Files (x86)\Windows Kits\10\include\10.0.22621.0\ucrt;C:\Program Files (x86)\Windows Kits\10\\include\10.0.22621.0\\um;C:\Program Files (x86)\Windows Kits\10\\include\10.0.22621.0\\shared;C:\Program Files (x86)\Windows Kits\10\\include\10.0.22621.0\\winrt;C:\Program Files (x86)\Windows Kits\10\\include\10.0.22621.0\\cppwinrt;C:\Program Files (x86)\Windows Kits\NETFXSDK\4.8\include\um
INTELFPGAOCLSDKROOT = C:\Program Files (x86)\Intel\oneAPI\compiler\latest\opt\oclfpga
INTEL_TARGET_ARCH = intel64
I_MPI_ONEAPI_ROOT = C:\Program Files (x86)\Intel\oneAPI\mpi\2021.10.0
JAVA_HOME = C:\Program Files\Eclipse Foundation\OpenJDK\
KMP_INIT_AT_FORK = FALSE
LANG = en_US.UTF-8
LIB = C:\Program Files (x86)\Intel\oneAPI\mkl\latest\lib;C:\Program Files (x86)\Intel\oneAPI\compiler\latest\opt\compiler\lib;C:\Program Files (x86)\Intel\oneAPI\compiler\latest\lib;C:\Program Files\Microsoft Visual Studio\2022\Enterprise\VC\Tools\MSVC\14.41.34120\ATLMFC\lib\x64;C:\Program Files\Microsoft Visual Studio\2022\Enterprise\VC\Tools\MSVC\14.41.34120\lib\x64;C:\Program Files (x86)\Windows Kits\NETFXSDK\4.8\lib\um\x64;C:\Program Files (x86)\Windows Kits\10\lib\10.0.22621.0\ucrt\x64;C:\Program Files (x86)\Windows Kits\10\\lib\10.0.22621.0\\um\x64
LIBPATH = C:\Program Files\Microsoft Visual Studio\2022\Enterprise\VC\Tools\MSVC\14.41.34120\ATLMFC\lib\x64;C:\Program Files\Microsoft Visual Studio\2022\Enterprise\VC\Tools\MSVC\14.41.34120\lib\x64;C:\Program Files\Microsoft Visual Studio\2022\Enterprise\VC\Tools\MSVC\14.41.34120\lib\x86\store\references;C:\Program Files (x86)\Windows Kits\10\UnionMetadata\10.0.22621.0;C:\Program Files (x86)\Windows Kits\10\References\10.0.22621.0;C:\Windows\Microsoft.NET\Framework64\v4.0.30319
LOCALAPPDATA = C:\Users\nguyenb5\AppData\Local
LOGONSERVER = \\DC02
LSTC_LICENSE = ansys
MKLROOT = C:\Program Files (x86)\Intel\oneAPI\mkl\latest
MKL_NUM_THREADS = 1
MP_NUMBER_OF_THREADS = 1
MSMPI_BENCHMARKS = C:\Program Files\Microsoft MPI\Benchmarks\
MSMPI_BIN = C:\Program Files\Microsoft MPI\Bin\
NETFXSDKDIR = C:\Program Files (x86)\Windows Kits\NETFXSDK\4.8\
NLSPATH = C:\Program Files (x86)\Intel\oneAPI\mkl\latest\share\locale\1033;
NUMBER_OF_PROCESSORS = 16
OCL_ICD_FILENAMES = C:\Program Files (x86)\Intel\oneAPI\compiler\latest\bin\intelocl64_emu.dll;C:\Program Files (x86)\Intel\oneAPI\compiler\latest\bin\intelocl64.dll
OMP_NUM_THREADS = 1
ONEDRIVE = C:\Users\nguyenb5\OneDrive - Aalto University
ONEDRIVECOMMERCIAL = C:\Users\nguyenb5\OneDrive - Aalto University
ORIGINAL_XDG_CURRENT_DESKTOP = undefined
OS = Windows_NT
PATH = C:\Users\nguyenb5\AppData\Local\Temp\nguyenb5_notched_plate_UEL_17780;C:\SIMULIA\EstProducts\2023\win_b64\tools\SMApy\python2.7\lib\site-packages\pywin32_system32;C:\SIMULIA\EstProducts\2023;C:\SIMULIA\EstProducts\2023\win_b64;C:\SIMULIA\EstProducts\2023\win_b64\code;C:\SIMULIA\EstProducts\2023\win_b64\code\bin;C:\SIMULIA\EstProducts\2023\win_b64\code\bin\SMAExternal;C:\SIMULIA\EstProducts\2023\win_b64\CAEresources;C:\SIMULIA\EstProducts\2023\win_b64\SMA;C:\SIMULIA\EstProducts\2023\win_b64\code\bin\SMAExternal\Interop;C:\SIMULIA\EstProducts\2023\win_b64\code\bin\SMAExternal\Elysium;C:\SIMULIA\EstProducts\2023\win_b64\tools\SMApy\python2.7;C:\SIMULIA\EstProducts\2023\win_b64\tools\SMApy\python2.7\lib;C:\SIMULIA\EstProducts\2023\win_b64\tools\SMApy\python2.7\DLLs;C:\Program Files (x86)\Intel\oneAPI\mkl\latest\bin;C:\Program Files (x86)\Intel\oneAPI\compiler\latest\bin;C:\Program Files (x86)\Intel\oneAPI\compiler\latest\opt\oclfpga\host\windows64\bin;C:\Program Files (x86)\Intel\oneAPI\compiler\latest\opt\oclfpga\bin;C:\Program Files\Microsoft Visual Studio\2022\Enterprise\VC\Tools\MSVC\14.41.34120\bin\HostX64\x64;C:\Program Files\Microsoft Visual Studio\2022\Enterprise\Common7\IDE\VC\VCPackages;C:\Program Files\Microsoft Visual Studio\2022\Enterprise\Common7\IDE\CommonExtensions\Microsoft\TestWindow;C:\Program Files\Microsoft Visual Studio\2022\Enterprise\Common7\IDE\CommonExtensions\Microsoft\TeamFoundation\Team Explorer;C:\Program Files\Microsoft Visual Studio\2022\Enterprise\MSBuild\Current\bin\Roslyn;C:\Program Files (x86)\Microsoft SDKs\Windows\v10.0A\bin\NETFX 4.8 Tools\x64\;C:\Program Files (x86)\HTML Help Workshop;C:\Program Files\Microsoft Visual Studio\2022\Enterprise\Common7\IDE\CommonExtensions\Microsoft\FSharp\Tools;C:\Program Files\Microsoft Visual Studio\2022\Enterprise\Team Tools\DiagnosticsHub\Collector;C:\Program Files\Microsoft Visual Studio\2022\Enterprise\Common7\IDE\Extensions\Microsoft\CodeCoverage.Console;C:\Program Files (x86)\Windows Kits\10\bin\10.0.22621.0\\x64;C:\Program Files (x86)\Windows Kits\10\bin\\x64;C:\Program Files\Microsoft Visual Studio\2022\Enterprise\\MSBuild\Current\Bin\amd64;C:\Windows\Microsoft.NET\Framework64\v4.0.30319;C:\Program Files\Microsoft Visual Studio\2022\Enterprise\Common7\IDE\;C:\Program Files\Microsoft Visual Studio\2022\Enterprise\Common7\Tools\;C:\Program Files\Eclipse Foundation\OpenJDK\bin;C:\Program Files (x86)\NVIDIA Corporation\PhysX\Common;C:\Program Files\Microsoft MPI\Bin\;C:\Program Files (x86)\Intel\oneAPI\mpi\latest\bin\;C:\SIMULIA\Commands;C:\WINDOWS\system32;C:\WINDOWS;C:\WINDOWS\System32\Wbem;C:\WINDOWS\System32\WindowsPowerShell\v1.0\;C:\WINDOWS\System32\OpenSSH\;C:\Program Files\dotnet\;C:\Program Files\Microsoft SQL Server\Client SDK\ODBC\110\Tools\Binn\;C:\Program Files (x86)\Microsoft SQL Server\120\Tools\Binn\;C:\Program Files\Microsoft SQL Server\120\Tools\Binn\;C:\Program Files\Microsoft SQL Server\120\DTS\Binn\;C:\Program Files (x86)\Windows Kits\8.1\Windows Performance Toolkit\;C:\Program Files (x86)\Windows Kits\10\Windows Performance Toolkit\;C:\Program Files\Microsoft SQL Server\Client SDK\ODBC\170\Tools\Binn\;C:\Program Files (x86)\Microsoft SQL Server\150\Tools\Binn\;C:\Program Files\Microsoft SQL Server\150\Tools\Binn\;C:\Program Files\Microsoft SQL Server\150\DTS\Binn\;C:\Program Files\Wolfram Research\WolframScript\;C:\ProgramData\chocolatey\bin;C:\Program Files\nodejs\;C:\Programs\Matlab\runtime\win64;C:\Programs\Matlab\bin;C:\Users\nguyenb5\AppData\Local\Microsoft\WindowsApps;C:\Users\nguyenb5\AppData\Local\Programs\Microsoft VS Code\bin;C:\Users\nguyenb5\AppData\Local\Programs\Git\cmd;\\home.org.aalto.fi\nguyenb5\data\MinGW\bin;C:\Program Files (x86)\Intel\oneAPI\compiler\2023.2.1\windows\bin\intel64_ia32;;C:\Users\nguyenb5\AppData\Roaming\npm;c:\Users\nguyenb5\.vscode\extensions\ms-python.debugpy-2025.6.0-win32-x64\bundled\scripts\noConfigScripts;c:\Users\nguyenb5\AppData\Roaming\Code\User\globalStorage\github.copilot-chat\debugCommand;;C:\Program Files\Microsoft Visual Studio\2022\Enterprise\Common7\IDE\CommonExtensions\Microsoft\CMake\CMake\bin;C:\Program Files\Microsoft Visual Studio\2022\Enterprise\Common7\IDE\CommonExtensions\Microsoft\CMake\Ninja;C:\Program Files\Microsoft Visual Studio\2022\Enterprise\Common7\IDE\VC\Linux\bin\ConnectionManagerExe;C:\Program Files\Microsoft Visual Studio\2022\Enterprise\VC\vcpkg;C:\Program Files (x86)\Intel\oneAPI\compiler\latest\lib\ocloc
PATHEXT = .COM;.EXE;.BAT;.CMD;.VBS;.VBE;.JS;.JSE;.WSF;.WSH;.MSC;.CPL
PKG_CONFIG_PATH = C:\Program Files (x86)\Intel\oneAPI\mkl\latest\lib\pkgconfig;C:\Program Files (x86)\Intel\oneAPI\compiler\latest\lib\pkgconfig;
PLATFORM = x64
PROCESSOR_ARCHITECTURE = AMD64
PROCESSOR_IDENTIFIER = Intel64 Family 6 Model 154 Stepping 3, GenuineIntel
PROCESSOR_LEVEL = 6
PROCESSOR_REVISION = 9a03
PROGRAMDATA = C:\ProgramData
PROGRAMFILES = C:\Program Files
PROGRAMFILES(X86) = C:\Program Files (x86)
PROGRAMW6432 = C:\Program Files
PROMPT = $P$G
PRO_COMM_MSG_EXE = C:\Program Files\PTC\Creo 9.0.7.0\Common Files\x86e_win64\obj\pro_comm_msg.exe
PSMODULEPATH = \\home.org.aalto.fi\nguyenb5\data\Documents\WindowsPowerShell\Modules;C:\Program Files\WindowsPowerShell\Modules;C:\WINDOWS\system32\WindowsPowerShell\v1.0\Modules;C:\Program Files (x86)\Microsoft SQL Server\120\Tools\PowerShell\Modules\;C:\Program Files (x86)\Microsoft SQL Server\150\Tools\PowerShell\Modules\
PUBLIC = C:\Users\Public
PYDEVD_DISABLE_FILE_VALIDATION = 1
PYTHONPATH = C:\SIMULIA\EstProducts\2023\win_b64\code\python2.7\lib;C:\SIMULIA\EstProducts\2023\win_b64\tools\SMApy\python2.7\lib;C:\SIMULIA\EstProducts\2023\win_b64\tools\SMApy\python2.7\lib\lib-tk;C:\SIMULIA\EstProducts\2023\win_b64\tools\SMApy\python2.7\lib\site-packages;C:\SIMULIA\EstProducts\2023\win_b64\tools\SMApy\python2.7\DLLs;.;C:\SIMULIA\EstProducts\2023;C:\SIMULIA\EstProducts\2023\win_b64;C:\SIMULIA\EstProducts\2023\win_b64\code;C:\SIMULIA\EstProducts\2023\win_b64\code\bin;C:\SIMULIA\EstProducts\2023\win_b64\code\bin\SMAExternal;C:\SIMULIA\EstProducts\2023\win_b64\CAEresources;C:\SIMULIA\EstProducts\2023\win_b64\SMA
PYTHONUNBUFFERED = nobuffering
PYVERDIRNAME = python2.7
SCRIPT_NAME = vars.bat
SESSIONNAME = Console
SMASVT_ROOT_PATH = C:\SIMULIA\EstProducts\2023;C:\SIMULIA\EstProducts\2023\win_b64;C:\SIMULIA\EstProducts\2023\win_b64\code;C:\SIMULIA\EstProducts\2023\win_b64\code\bin;C:\SIMULIA\EstProducts\2023\win_b64\code\bin\SMAExternal;C:\SIMULIA\EstProducts\2023\win_b64\CAEresources;C:\SIMULIA\EstProducts\2023\win_b64\SMA
SYSTEMDRIVE = C:
SYSTEMROOT = C:\WINDOWS
TEMP = C:\Users\nguyenb5\AppData\Local\Temp
TERM_PROGRAM = vscode
TERM_PROGRAM_VERSION = 1.99.0
TMP = C:\Users\nguyenb5\AppData\Local\Temp\nguyenb5_notched_plate_UEL_17780
TMPDIR = C:\Users\nguyenb5\AppData\Local\Temp\nguyenb5_notched_plate_UEL_17780
UATDATA = C:\WINDOWS\CCM\UATData\D9F8C395-CAB8-491d-B8AC-179A1FE1BE77
UCRTVERSION = 10.0.22621.0
UNIVERSALCRTSDKDIR = C:\Program Files (x86)\Windows Kits\10\
USERDNSDOMAIN = ORG.AALTO.FI
USERDOMAIN = AALTO
USERDOMAIN_ROAMINGPROFILE = AALTO
USERNAME = nguyenb5
USERPROFILE = C:\Users\nguyenb5
USE_INTEL_LLVM = 0
VARSDIR = C:\Program Files (x86)\Intel\oneAPI\compiler\latest\env\
VCIDEINSTALLDIR = C:\Program Files\Microsoft Visual Studio\2022\Enterprise\Common7\IDE\VC\
VCINSTALLDIR = C:\Program Files\Microsoft Visual Studio\2022\Enterprise\VC\
VCPKG_ROOT = C:\Program Files\Microsoft Visual Studio\2022\Enterprise\VC\vcpkg
VCTOOLSINSTALLDIR = C:\Program Files\Microsoft Visual Studio\2022\Enterprise\VC\Tools\MSVC\14.41.34120\
VCTOOLSREDISTDIR = C:\Program Files\Microsoft Visual Studio\2022\Enterprise\VC\Redist\MSVC\14.40.33807\
VCTOOLSVERSION = 14.41.34120
VISUALSTUDIOVERSION = 17.0
VS140COMNTOOLS = C:\Program Files (x86)\Microsoft Visual Studio 14.0\Common7\Tools\
VS170COMNTOOLS = C:\Program Files\Microsoft Visual Studio\2022\Enterprise\Common7\Tools\
VSCMD_ARG_APP_PLAT = Desktop
VSCMD_ARG_HOST_ARCH = x64
VSCMD_ARG_TGT_ARCH = x64
VSCMD_VER = 17.11.5
VSCODE_DEBUGPY_ADAPTER_ENDPOINTS = c:\Users\nguyenb5\.vscode\extensions\ms-python.debugpy-2025.6.0-win32-x64\.noConfigDebugAdapterEndpoints\endpoint-0ed1891278ddac5b.txt
VSCODE_GIT_ASKPASS_EXTRA_ARGS = 
VSCODE_GIT_ASKPASS_MAIN = c:\Users\nguyenb5\AppData\Local\Programs\Microsoft VS Code\resources\app\extensions\git\dist\askpass-main.js
VSCODE_GIT_ASKPASS_NODE = C:\Users\nguyenb5\AppData\Local\Programs\Microsoft VS Code\Code.exe
VSCODE_GIT_IPC_HANDLE = \\.\pipe\vscode-git-e8681ad06a-sock
VSCODE_INJECTION = 1
VSINSTALLDIR = C:\Program Files\Microsoft Visual Studio\2022\Enterprise\
WINDIR = C:\WINDOWS
WINDOWSLIBPATH = C:\Program Files (x86)\Windows Kits\10\UnionMetadata\10.0.22621.0;C:\Program Files (x86)\Windows Kits\10\References\10.0.22621.0
WINDOWSSDKBINPATH = C:\Program Files (x86)\Windows Kits\10\bin\
WINDOWSSDKDIR = C:\Program Files (x86)\Windows Kits\10\
WINDOWSSDKLIBVERSION = 10.0.22621.0\
WINDOWSSDKVERBINPATH = C:\Program Files (x86)\Windows Kits\10\bin\10.0.22621.0\
WINDOWSSDKVERSION = 10.0.22621.0\
WINDOWSSDK_EXECUTABLEPATH_X64 = C:\Program Files (x86)\Microsoft SDKs\Windows\v10.0A\bin\NETFX 4.8 Tools\x64\
WINDOWSSDK_EXECUTABLEPATH_X86 = C:\Program Files (x86)\Microsoft SDKs\Windows\v10.0A\bin\NETFX 4.8 Tools\
ZES_ENABLE_SYSMAN = 1
_NT_SYMBOL_PATH = C:\SIMULIA\EstProducts\2023;C:\SIMULIA\EstProducts\2023\win_b64;C:\SIMULIA\EstProducts\2023\win_b64\code;C:\SIMULIA\EstProducts\2023\win_b64\code\bin;C:\SIMULIA\EstProducts\2023\win_b64\code\bin\SMAExternal;C:\SIMULIA\EstProducts\2023\win_b64\CAEresources;C:\SIMULIA\EstProducts\2023\win_b64\SMA;C:\SIMULIA\EstProducts\2023\win_b64\code\bin\SMAExternal\Interop;C:\SIMULIA\EstProducts\2023\win_b64\code\bin\SMAExternal\Elysium;C:\SIMULIA\EstProducts\2023\win_b64\tools\SMApy\python2.7;C:\SIMULIA\EstProducts\2023\win_b64\tools\SMApy\python2.7\lib;C:\SIMULIA\EstProducts\2023\win_b64\tools\SMApy\python2.7\DLLs
__DOTNET_ADD_64BIT = 1
__DOTNET_PREFERRED_BITNESS = 64
__MS_VC_INSTALL_PATH = C:\Program Files\Microsoft Visual Studio\2022\Enterprise\VC\Tools\MSVC\14.41.34120\
__VSCMD_PREINIT_PATH = C:\Program Files\Eclipse Foundation\OpenJDK\bin;C:\Program Files (x86)\NVIDIA Corporation\PhysX\Common;C:\Program Files\Microsoft MPI\Bin\;C:\Program Files (x86)\Intel\oneAPI\mpi\latest\bin\;C:\Program Files (x86)\Intel\oneAPI\mpi\latest\bin\release\;C:\Program Files (x86)\Intel\oneAPI\mpi\latest\libfabric\bin\;C:\Program Files (x86)\Intel\oneAPI\mpi\latest\libfabric\bin\utils\;C:\Program Files (x86)\Intel\oneAPI\compiler\latest\windows\redist\intel64_win\compiler;C:\Program Files (x86)\Intel\oneAPI\compiler\latest\windows\redist\ia32_win\compiler;C:\SIMULIA\Commands;C:\WINDOWS\system32;C:\WINDOWS;C:\WINDOWS\System32\Wbem;C:\WINDOWS\System32\WindowsPowerShell\v1.0\;C:\WINDOWS\System32\OpenSSH\;C:\Program Files\dotnet\;C:\Program Files\Microsoft SQL Server\Client SDK\ODBC\110\Tools\Binn\;C:\Program Files (x86)\Microsoft SQL Server\120\Tools\Binn\;C:\Program Files\Microsoft SQL Server\120\Tools\Binn\;C:\Program Files\Microsoft SQL Server\120\DTS\Binn\;C:\Program Files (x86)\Windows Kits\8.1\Windows Performance Toolkit\;C:\Program Files (x86)\Windows Kits\10\Windows Performance Toolkit\;C:\Program Files\Microsoft SQL Server\Client SDK\ODBC\170\Tools\Binn\;C:\Program Files (x86)\Microsoft SQL Server\150\Tools\Binn\;C:\Program Files\Microsoft SQL Server\150\Tools\Binn\;C:\Program Files\Microsoft SQL Server\150\DTS\Binn\;C:\Program Files\Wolfram Research\WolframScript\;C:\ProgramData\chocolatey\bin;C:\Program Files\nodejs\;C:\Programs\Matlab\runtime\win64;C:\Programs\Matlab\bin;C:\Program Files\SAM\External\WinRAR;C:\Users\nguyenb5\AppData\Local\Microsoft\WindowsApps;C:\Users\nguyenb5\AppData\Local\Programs\Microsoft VS Code\bin;C:\Users\nguyenb5\AppData\Local\Programs\Git\cmd;Z:\MinGW\bin;C:\Program Files (x86)\Intel\oneAPI\compiler\2023.2.1\windows\bin\intel64_ia32;C:\SIMULIA\Commands;C:\Users\nguyenb5\AppData\Roaming\npm;c:\Users\nguyenb5\.vscode\extensions\ms-python.debugpy-2025.6.0-win32-x64\bundled\scripts\noConfigScripts;c:\Users\nguyenb5\AppData\Roaming\Code\User\globalStorage\github.copilot-chat\debugCommand;C:\Program Files (x86)\Intel\oneAPI\compiler\latest\windows\bin\intel64;
decfort_dump_flag = TRUE

# --------------- Execution Options -----------------
SIMExt = .sim
aba_jle_exclusions = {'inertiaReliefPerturbationLoadCases': {'inertiarelief': ON, 'loadcases': '5', 'perturbation': ON}}
aba_jle_std_direct = 10,20
aba_jle_std_direct_memlimit = 8gb
aba_jle_std_direct_reqcpus = 32
aba_jle_std_iterative = 4
aba_jle_std_mbld = 6,12,24,48
aba_jle_xpl_all = 1
aba_timing = 1
abaquslm_license_file = 4084@lic-abaqus.aalto.fi
adaptiveMesh = OFF
ams = OFF
analysisType = STANDARD
applicationName = analysis
aqua = OFF
ask_delete = OFF
auto_calculate = ANALYSIS
auto_convert = ON
beamSectGen = OFF
biorid = OFF
cae_local_host = localhost
cavityTypes = []
cavparallel = OFF
compile_cpp = ['cl', '/c', '/W0', '/MD', '/TP', '/EHsc', '/DNDEBUG', '/DWIN32', '/DTP_IP', '/D_CONSOLE', '/DNTI', '/DFLT_LIC', '/DOL_DOC', '/D__LIB__', '/DHKS_NT', '/D_WINDOWS_SOURCE', '/DFAR=', '/D_WINDOWS', '/DABQ_WIN86_64', '%P', '/I%I', '/IC:\\SIMULIA\\EstProducts\\2023']
compile_fmu = ['win64CmpWrp', '-m64', '-msvc9', 'cl', '/LD', '/D_WINDOWS', '/TC', '/W0', '/I%I', '/IC:\\SIMULIA\\EstProducts\\2023']
compile_fortran = ['ifort', '/c', '/fpp', '/extend-source', '/DABQ_WIN86_64', '/DABQ_FORTRAN', '/iface:cref', '/recursive', '/Qauto', '/align:array64byte', '/Qpc64', '/Qprec-div', '/Qprec-sqrt', '/Qfma-', '/fp:precise', '/Qimf-arch-consistency:true', '/Qfp-speculation:safe', '/Qprotect-parens', '/Qfp-stack-check', '/reentrancy:threaded', '/QxSSE3', '/QaxAVX', '/include:%I', '/include:C:\\SIMULIA\\EstProducts\\2023', '%P', '/names:lowercase', '/Qmkl:sequential']
complexFrequency = OFF
connect_timeout = 30
contact = OFF
cosimulation = OFF
coupledProcedure = ON
cpus = 2
cpusValidated = True
cse = OFF
cyclicSymmetryModel = OFF
directCyclic = OFF
direct_port = None
direct_solver = SMP
direct_solver_use_default = 1
doc_root = http://help.3ds.com
domains = 1
dsa = OFF
dynStepSenseAdj = OFF
dynamic = OFF
exciteBodies = []
externalField = OFF
externalFieldCSEAux = OFF
externalFieldExtList = ['.sim', '.SMAManifest']
externalFieldFiles = []
externalFieldSimReader = None
fieldImport = OFF
filPrt = []
fils = []
finitesliding = OFF
flexibleBody = OFF
foundation = OFF
freqSimReq = OFF
geostatic = OFF
heatTransfer = OFF
impJobExpVars = {}
importJobList = []
importSim = OFF
importer = OFF
importerParts = OFF
includes = ['processing_input/nodes.inc', 'processing_input/elements_UEL.inc', 'processing_input/elements_VISUAL.inc']
indir = C:\LocalUserData\User-data\nguyenb5\Abaqus-UEL-Multiphysics\(UEL) cube_C3D8T_multiphysics
inertiarelief = OFF
initialConditionsFile = OFF
input = notched_plate_UEL
inputFormat = INP
interactive = None
interpolExtList = ['.odb', '.sim', '.SMAManifest']
jleJobExcluded = False
job = notched_plate_UEL
keyword_licenses = []
lanczos = OFF
lastmessageonly = OFF
libs = []
license_server_type = FLEXNET
link_exe = ['LINK', '/nologo', '/INCREMENTAL:NO', '/subsystem:console', '/machine:AMD64', '/STACK:20000000', '/NODEFAULTLIB:LIBC.LIB', '/NODEFAULTLIB:LIBCMT.LIB', '/DEFAULTLIB:OLDNAMES.LIB', '/DEFAULTLIB:LIBIFCOREMD.LIB', '/DEFAULTLIB:LIBIFPORTMD.LIB', '/DEFAULTLIB:LIBMMD.LIB', '/DEFAULTLIB:kernel32.lib', '/DEFAULTLIB:user32.lib', '/DEFAULTLIB:advapi32.lib', '/FIXED:NO', '/LARGEADDRESSAWARE', '/out:%J', '%F', '%M', '%L', '%B', '%O', 'oldnames.lib', 'user32.lib', 'ws2_32.lib', 'netapi32.lib', 'advapi32.lib', 'msvcrt.lib', 'vcruntime.lib', 'ucrt.lib']
link_sl = ['LINK', '/nologo', '/NOENTRY', '/INCREMENTAL:NO', '/subsystem:console', '/machine:AMD64', '/NODEFAULTLIB:LIBC.LIB', '/NODEFAULTLIB:LIBCMT.LIB', '/DEFAULTLIB:OLDNAMES.LIB', '/DEFAULTLIB:LIBIFCOREMD.LIB', '/DEFAULTLIB:LIBIFPORTMD.LIB', '/DEFAULTLIB:LIBMMD.LIB', '/DEFAULTLIB:kernel32.lib', '/DEFAULTLIB:user32.lib', '/DEFAULTLIB:advapi32.lib', '/FIXED:NO', '/dll', '/def:%E', '/out:%U', '%F', '%A', '%L', '%B', 'oldnames.lib', 'user32.lib', 'ws2_32.lib', 'netapi32.lib', 'advapi32.lib', 'msvcrt.lib', 'vcruntime.lib', 'ucrt.lib']
listener_name = None
listener_resource = None
lmsuspend = None
magnetostatic = OFF
massDiffusion = OFF
materialresponse = OFF
message = OFF
messaging_mechanism = DIRECT
modifiedTet = OFF
moldflowFiles = []
moldflowMaterial = OFF
mp_environment_export = ('ABAQUSLM_LICENSE_FILE', 'ABAQUS_CCI_DEBUG', 'ABAQUS_CSE_CURRCONFIGMAPPING', 'ABAQUS_CSE_RELTIMETOLERANCE', 'ABAQUS_DEVL_MODE', 'ABAQUS_LANG', 'ABAQUS_MPF_DIAGNOSTIC_LEVEL', 'ABA_ADM_ALIGNMENT', 'ABA_ADM_MINIMUMDECREASE', 'ABA_ADM_MINIMUMINCREASE', 'ABA_ALL_ADB_IN_TMPDIR', 'ABA_CM_BUFFERING', 'ABA_CM_BUFFERING_LIMIT', 'ABA_CUTOFF_SLAVEFACET_ANGLE', 'ABA_DIRECT_SOLVER_PATH', 'ABA_DMPSOLVER_BWDPARALLELOFF', 'ABA_ELP_SURFACE_SPLIT', 'ABA_ELP_SUSPEND', 'ABA_ENABLE_DYNELEMS', 'ABA_EVOLVING_JOBS', 'ABA_EXT_SIMOUTPUT', 'ABA_GCONT_POOL_SIZE', 'ABA_HOME', 'ABA_INC_DEFAULT', 'ABA_ITERATIVE_SOLVER_VERBOSE', 'ABA_MEMORY_MODE', 'ABA_MPI_MESSAGE_TRACKING', 'ABA_MPI_VERBOSE_LEVEL', 'ABA_NEW_STOS_COHESIVE_APPROX_CONTACT', 'ABA_NEW_STOS_COHESIVE_CONTACT', 'ABA_NUM_INTEGRATION_POINTS_LINE3D', 'ABA_SHARED_SAVEDIR', 'ABA_PATH', 'ABA_PRE_DECOMPOSITION', 'ABA_PRINT_DYNELEMS', 'ABA_REMOVE_OVERCONSTRAINED_TIES', 'ABA_RESOURCE_MONITOR', 'ABA_RESOURCE_USEMALLINFO', 'ABA_RESULTS_OVERLAY', 'ABA_STD_ACTIVATE_CONTACT_FOR_AM', 'ABA_STD_MAX_SEARCH_DISTANCE', 'ABA_SYMBOLIC_GENERALCOLLAPSE', 'ABA_SYMBOLIC_GENERAL_MAXCLIQUERANK', 'ABA_TOSCA_JOB_STALL', 'ABA_TOSCA_OVERLAY', 'ABA_TOSCA_PROTOTYPE', 'ABA_TOSCA_SEQFILES', 'ABA_TOSCA_STALL', 'ABA_UNIT_INDEPENDENT_CONTACT', 'ABA_USE_NEW_STOS_SST_FORMULATION', 'ABA_USE_NEWTRACKDB', 'ABA_USE_OLD_SURF_TO_SURF_CONTACT', 'ABA_POTENTIAL_DEV', 'ABA_XPL_ALLMEMCHECKS', 'ABA_XPL_DEBUG', 'ABQLMHANGLIMIT', 'ABQLMIMPL', 'ABQLMQUEUE', 'ABQLMUSER', 'ABQ_ACTIVATE_PTK', 'ABQ_BYPASS_UNCONNECTED_REGION_CHECK', 'ABQ_CRTMALLOC', 'ABQ_DATACHECK', 'ABQ_DLALLOCATOR', 'ABQ_PATTERN', 'ABQ_PATTERN_VALUE', 'ABQ_RECOVER', 'ABQ_RESTART', 'ABQ_SKIP_ANALYTIC_SURF_GCONT', 'ABQ_SPLITFILE', 'ABQ_STD_ACCUM_CSLIP', 'ABQ_STD_ACTIVATE_BEAM_ROTATION', 'ABQ_STD_ALLOW_SURFACE_TO_BEAM', 'ABQ_SUPERELASTIC_MODIFIED', 'ABQ_GC_HEAT', 'ABQ_GC_SMALL', 'ABQ_UREG_USE_CONTACT_ELEM', 'ABQ_XFEM_POREPRESSURE', 'ABQ_XPL_DSMABORT', 'ABQ_XPL_PARTITIONSIZE', 'ABQ_XPL_WINDOWDUMP', 'ACML_FAST_MALLOC', 'ACML_FAST_MALLOC_CHUNK_SIZE', 'ACML_FAST_MALLOC_DEBUG', 'ACML_FAST_MALLOC_MAX_CHUNKS', 'ADB_USE_OLDSLDB', 'ADB_USE_NEWSLDB', 'CCI_RENDEZVOUS', 'DOMAIN', 'DOMAIN_CPUS', 'DOUBLE_PRECISION', 'DSLS_AUTH_PATHNAME', 'DSLS_CONFIG', 'FI_PROVIDER', 'FI_PROVIDER_PATH', 'FLEXLM_DIAGNOSTICS', 'FOR0006', 'FOR0064', 'FOR_DISABLE_DIAGNOSTIC_DISPLAY', 'FOR_IGNORE_EXCEPTIONS', 'I_MPI_FABRICS', 'I_MPI_OFI_PROVIDER', 'IPATH_NO_CPUAFFINITY', 'LD_PRELOAD', 'MALLOC_MMAP_THRESHOLD_', 'MKL_DYNAMIC', 'MKL_NUM_THREADS', 'MPCCI_CODEID', 'MPCCI_DEBUG', 'MPCCI_JOBID', 'MPCCI_NETDEVICE', 'MPCCI_SERVER', 'MPCCI_TINFO', 'MPC_GANG', 'MPIEXEC_AFFINITY_TABLE', 'MPI_FLAGS', 'MPI_FLUSH_FCACHE', 'MPI_PROPAGATE_TSTP', 'MPI_SOCKBUFSIZE', 'MPI_USE_MALLOPT_MMAP_MAX', 'MPI_USE_MALLOPT_MMAP_THRESHOLD', 'MPI_USE_MALLOPT_SBRK_PROTECTION', 'MPI_WORKDIR', 'MPIR_CVAR_CH4_OFI_TAG_BITS', 'MPIR_CVAR_CH4_OFI_RANK_BITS', 'MP_NUMBER_OF_THREADS', 'MPICH_ND_ZCOPY_THRESHOLD', 'NCPUS', 'OMP_DYNAMIC', 'OMP_NUM_THREADS', 'OUTDIR', 'PAIDUP', 'PARALLEL_METHOD', 'RAIDEV_NDREG_LAZYMEM', 'SMA_PARENT', 'SMA_PLATFORM', 'SMA_WS', 'SIMULIA_COSIN_PATH', 'STD_INITSTRESS_FLAG', 'STD_INITGEOICS_FLAG', 'UCX_IB_MLX5_DEVX', 'XPL_HMP_COMMTHREAD')
mp_file_system = (SHARED, SHARED)
mp_head_node = ('l23-0203.org.aalto.fi', 'l23-0203', '130.233.70.99')
mp_host_list = (('l23-0203', 2),)
mp_mode = THREADS
mp_mode_requested = MPI
mp_mpiCommand = []
mp_mpi_implementation = NATIVE
mp_mpi_searchpath = ['Microsoft MPI', 'Microsoft HPC Pack', 'Microsoft HPC Pack 2008 R2', 'Microsoft HPC Pack 2008', 'Microsoft HPC Pack 2008 SDK', 'Microsoft HPC Pack 2012']
mp_mpi_validate = OFF
mp_mpirun_path = C:\Program Files\Microsoft MPI\bin\mpiexec.exe
mp_rsh_command = dummy %H -l nguyenb5 -n %C
mp_user = source_code/UEL_multiphysics.f90
multiphysics = OFF
noDmpDirect = []
noMultiHost = []
noMultiHostElemLoop = []
no_domain_check = 1
numLoadCases = 0
onCaeGraphicsStartup = <function onCaeGraphicsStartup at 0x000001F8E21C1DD8>
onJobCompletion = []
onJobStartup = []
onestepinverse = OFF
outdir = C:\LocalUserData\User-data\nguyenb5\Abaqus-UEL-Multiphysics\(UEL) cube_C3D8T_multiphysics
outputKeywords = ON
parameterized = OFF
partsAndAssemblies = ON
parval = OFF
pgdHeatTransfer = OFF
plugin_central_dir = C:\SIMULIA\CAE\plugins\2023
postOutput = OFF
preDecomposition = ON
queues = {}
randomResponse = OFF
restart = OFF
restartEndStep = OFF
restartIncrement = 0
restartStep = 0
restartWrite = OFF
resultsFormat = ODB
rezone = OFF
runCalculator = OFF
simMode = SFS
simpackBodies = []
simwrk = C:\LocalUserData\User-data\nguyenb5\Abaqus-UEL-Multiphysics\(UEL) cube_C3D8T_multiphysics\notched_plate_UEL
soils = OFF
soliter = OFF
solverTypes = ['DIRECT']
ssd = OFF
ssdCheckOK = False
standard_parallel = ALL
staticNonlinear = OFF
steadyStateTransport = OFF
step = ON
stepSenseAdj = OFF
stressExtList = ['.odb', '.sim', '.SMAManifest']
subGen = OFF
subGenResidual = OFF
submodel = OFF
substrLibDefs = OFF
substructure = OFF
symModGenModel = OFF
symmetricModelGeneration = OFF
symmetricResultsTransfer = OFF
tempNoInterpolExtList = ['.fil', '.odb', '.sim', '.SMAManifest']
thermal = OFF
timeout = 3600
tmpdir = C:\Users\nguyenb5\AppData\Local\Temp\nguyenb5_notched_plate_UEL_17780
tracer = OFF
transientSensitivity = OFF
umbrella_host = L23-0203
umbrella_port = 63370
unconnected_regions = OFF
unfold_param = OFF
unsymm = OFF
user = source_code/UEL_multiphysics.f90
verbose = 1
visco = OFF
xplSelect = OFF

# --------------- Execution Environment -----------------
ABAQUSLM_LICENSE_FILE = 4084@lic-abaqus.aalto.fi
ABAQUS_LANG = English_United States.1252
ABAQUS_PY_TRANSLATION_DICTIONARY = Configuration/Xresources/en_US/en_US_PyDict.py
ABAQUS_SEQ = 2023_07_21-20.45.57 RELr425 183702
ABAQUS_TRANSLATION_DICTIONARY = Configuration/Xresources/en_US/en_US_Dict.py
ABA_BLA_LIBRARY_PATH = C:\SIMULIA\EstProducts\2023;C:\SIMULIA\EstProducts\2023\win_b64;C:\SIMULIA\EstProducts\2023\win_b64\code;C:\SIMULIA\EstProducts\2023\win_b64\code\bin;C:\SIMULIA\EstProducts\2023\win_b64\code\bin\SMAExternal;C:\SIMULIA\EstProducts\2023\win_b64\CAEresources;C:\SIMULIA\EstProducts\2023\win_b64\SMA;C:\SIMULIA\EstProducts\2023\win_b64\code\bin\SMAExternal\Interop;C:\SIMULIA\EstProducts\2023\win_b64\code\bin\SMAExternal\Elysium;C:\SIMULIA\EstProducts\2023\win_b64\tools\SMApy\python2.7;C:\SIMULIA\EstProducts\2023\win_b64\tools\SMApy\python2.7\lib;C:\SIMULIA\EstProducts\2023\win_b64\tools\SMApy\python2.7\DLLs
ABA_COMMAND = C:\SIMULIA\EstProducts\2023\win_b64\code\bin\SMALauncher.exe
ABA_DRIVERNAME = abq2023hf4.bat
ABA_HOME = C:\SIMULIA\EstProducts\2023\win_b64
ABA_LIBRARY_PATHNAME = PATH
ABA_MPI_LIBRARY_PATH = C:\SIMULIA\EstProducts\2023;C:\SIMULIA\EstProducts\2023\win_b64;C:\SIMULIA\EstProducts\2023\win_b64\code;C:\SIMULIA\EstProducts\2023\win_b64\code\bin;C:\SIMULIA\EstProducts\2023\win_b64\code\bin\SMAExternal;C:\SIMULIA\EstProducts\2023\win_b64\CAEresources;C:\SIMULIA\EstProducts\2023\win_b64\SMA;C:\SIMULIA\EstProducts\2023\win_b64\code\bin\SMAExternal\Interop;C:\SIMULIA\EstProducts\2023\win_b64\code\bin\SMAExternal\Elysium;C:\SIMULIA\EstProducts\2023\win_b64\tools\SMApy\python2.7;C:\SIMULIA\EstProducts\2023\win_b64\tools\SMApy\python2.7\lib;C:\SIMULIA\EstProducts\2023\win_b64\tools\SMApy\python2.7\DLLs
ABA_PATH = C:\SIMULIA\EstProducts\2023;C:\SIMULIA\EstProducts\2023\win_b64;C:\SIMULIA\EstProducts\2023\win_b64\code;C:\SIMULIA\EstProducts\2023\win_b64\code\bin;C:\SIMULIA\EstProducts\2023\win_b64\code\bin\SMAExternal;C:\SIMULIA\EstProducts\2023\win_b64\CAEresources;C:\SIMULIA\EstProducts\2023\win_b64\SMA
ABA_PATH_BASE = C:\SIMULIA\EstProducts\2023\win_b64;
ABQINFO = C:\SIMULIA\EstProducts\2023\win_b64\SMA\info\
ABQLMHANGLIMIT = 0
ABQLMIMPL = FLEXNET
ABQLMQUEUE = 30
ABQLMUSER = nguyenb5
ABQ_DLALLOCATOR = 1
ALLUSERSPROFILE = C:\ProgramData
ALTAIR_LICENSE_PATH = LZUO8-4LN0D-ZR43P-FT4YV;LZUO8-4LN0D-ZR43P-FT4YV
ANSYS_LSW_DOC = C:\Program Files\LS-DYNA Suite R14 Student\documentation\
ANSYS_LSW_LSDYNA = C:\Program Files\LS-DYNA Suite R14 Student\lsdyna\ls-dyna_smp_d_R14.1.1s_1-gef50e1efb1_winx64_ifort190.exe
ANSYS_LSW_LSPP = C:\Program Files\LS-DYNA Suite R14 Student\lspp\lsprepost4.10_x64.exe
APPDATA = C:\Users\nguyenb5\AppData\Roaming
BUNDLED_DEBUGPY_PATH = c:\Users\nguyenb5\.vscode\extensions\ms-python.debugpy-2025.6.0-win32-x64\bundled\libs\debugpy
CATCOMMANDPATH = C:\SIMULIA\EstProducts\2023\win_b64\code\command
CATDICTIONARYPATH = C:\SIMULIA\EstProducts\2023\win_b64\code\dictionary
CHOCOLATEYINSTALL = C:\ProgramData\chocolatey
CHOCOLATEYLASTPATHUPDATE = 133712359850823357
CHROME_CRASHPAD_PIPE_NAME = \\.\pipe\crashpad_2028_TYKNWZQBDDUBMOLK
CMAKE_PREFIX_PATH = C:\Program Files (x86)\Intel\oneAPI\compiler\latest;
CMPLR_ROOT = C:\Program Files (x86)\Intel\oneAPI\compiler\latest
COLORTERM = truecolor
COMMANDPROMPTTYPE = Native
COMMONPROGRAMFILES = C:\Program Files\Common Files
COMMONPROGRAMFILES(X86) = C:\Program Files (x86)\Common Files
COMMONPROGRAMW6432 = C:\Program Files\Common Files
COMPUTERNAME = L23-0203
COMSPEC = C:\WINDOWS\system32\cmd.exe
COVERAGE_RCFILE = C:\SIMULIA\EstProducts\2023\win_b64\SMA\site\pyCoverageConfig.env
CPATH = C:\Program Files (x86)\Intel\oneAPI\mkl\latest\include;C:\Program Files (x86)\Intel\oneAPI\compiler\latest\include;C:\Program Files (x86)\Intel\oneAPI\compiler\latest\opt\oclfpga\include;
CUSTOMWORKSPACE = 
DEVENVDIR = C:\Program Files\Microsoft Visual Studio\2022\Enterprise\Common7\IDE\
DRIVERDATA = C:\Windows\System32\Drivers\DriverData
DSY_TENANT = OnPremise
EXTENSIONSDKDIR = C:\Program Files (x86)\Microsoft SDKs\Windows Kits\10\ExtensionSDKs
EXTERNAL_INCLUDE = C:\Program Files\Microsoft Visual Studio\2022\Enterprise\VC\Tools\MSVC\14.41.34120\include;C:\Program Files\Microsoft Visual Studio\2022\Enterprise\VC\Tools\MSVC\14.41.34120\ATLMFC\include;C:\Program Files\Microsoft Visual Studio\2022\Enterprise\VC\Auxiliary\VS\include;C:\Program Files (x86)\Windows Kits\10\include\10.0.22621.0\ucrt;C:\Program Files (x86)\Windows Kits\10\\include\10.0.22621.0\\um;C:\Program Files (x86)\Windows Kits\10\\include\10.0.22621.0\\shared;C:\Program Files (x86)\Windows Kits\10\\include\10.0.22621.0\\winrt;C:\Program Files (x86)\Windows Kits\10\\include\10.0.22621.0\\cppwinrt;C:\Program Files (x86)\Windows Kits\NETFXSDK\4.8\include\um
FED_DSFLEX_LICENSE_CONFIG = 4084@lic-abaqus.aalto.fi
FED_LICENSE_SERVER_TYPE = DSFLEX
FLEXLM_TIMEOUT = 3000000
FOR_DIAGNOSTIC_LOG_FILE = fort.7
FOR_DUMP_CORE_FILE = TRUE
FOR_FORCE_STACK_TRACE = TRUE
FOR_IGNORE_EXCEPTIONS = TRUE
FRAMEWORK40VERSION = v4.0
FRAMEWORKDIR = C:\Windows\Microsoft.NET\Framework64\
FRAMEWORKDIR64 = C:\Windows\Microsoft.NET\Framework64\
FRAMEWORKVERSION = v4.0.30319
FRAMEWORKVERSION64 = v4.0.30319
FSHARPINSTALLDIR = C:\Program Files\Microsoft Visual Studio\2022\Enterprise\Common7\IDE\CommonExtensions\Microsoft\FSharp\Tools
GIT_ASKPASS = c:\Users\nguyenb5\AppData\Local\Programs\Microsoft VS Code\resources\app\extensions\git\dist\askpass.sh
HOMEDRIVE = Z:
HOMEPATH = \
HOMESHARE = \\home.org.aalto.fi\nguyenb5\data
HTMLHELPDIR = C:\Program Files (x86)\HTML Help Workshop
IFORT_COMPILER23 = C:\Program Files (x86)\Intel\oneAPI\compiler\2023.2.1\windows\
INCLUDE = C:\Program Files (x86)\Intel\oneAPI\mkl\latest\include;C:\Program Files (x86)\Intel\oneAPI\compiler\latest\include;C:\Program Files\Microsoft Visual Studio\2022\Enterprise\VC\Tools\MSVC\14.41.34120\include;C:\Program Files\Microsoft Visual Studio\2022\Enterprise\VC\Tools\MSVC\14.41.34120\ATLMFC\include;C:\Program Files\Microsoft Visual Studio\2022\Enterprise\VC\Auxiliary\VS\include;C:\Program Files (x86)\Windows Kits\10\include\10.0.22621.0\ucrt;C:\Program Files (x86)\Windows Kits\10\\include\10.0.22621.0\\um;C:\Program Files (x86)\Windows Kits\10\\include\10.0.22621.0\\shared;C:\Program Files (x86)\Windows Kits\10\\include\10.0.22621.0\\winrt;C:\Program Files (x86)\Windows Kits\10\\include\10.0.22621.0\\cppwinrt;C:\Program Files (x86)\Windows Kits\NETFXSDK\4.8\include\um
INTELFPGAOCLSDKROOT = C:\Program Files (x86)\Intel\oneAPI\compiler\latest\opt\oclfpga
INTEL_TARGET_ARCH = intel64
I_MPI_ONEAPI_ROOT = C:\Program Files (x86)\Intel\oneAPI\mpi\2021.10.0
JAVA_HOME = C:\Program Files\Eclipse Foundation\OpenJDK\
KMP_INIT_AT_FORK = FALSE
LANG = en_US.UTF-8
LIB = C:\Program Files (x86)\Intel\oneAPI\mkl\latest\lib;C:\Program Files (x86)\Intel\oneAPI\compiler\latest\opt\compiler\lib;C:\Program Files (x86)\Intel\oneAPI\compiler\latest\lib;C:\Program Files\Microsoft Visual Studio\2022\Enterprise\VC\Tools\MSVC\14.41.34120\ATLMFC\lib\x64;C:\Program Files\Microsoft Visual Studio\2022\Enterprise\VC\Tools\MSVC\14.41.34120\lib\x64;C:\Program Files (x86)\Windows Kits\NETFXSDK\4.8\lib\um\x64;C:\Program Files (x86)\Windows Kits\10\lib\10.0.22621.0\ucrt\x64;C:\Program Files (x86)\Windows Kits\10\\lib\10.0.22621.0\\um\x64
LIBPATH = C:\Program Files\Microsoft Visual Studio\2022\Enterprise\VC\Tools\MSVC\14.41.34120\ATLMFC\lib\x64;C:\Program Files\Microsoft Visual Studio\2022\Enterprise\VC\Tools\MSVC\14.41.34120\lib\x64;C:\Program Files\Microsoft Visual Studio\2022\Enterprise\VC\Tools\MSVC\14.41.34120\lib\x86\store\references;C:\Program Files (x86)\Windows Kits\10\UnionMetadata\10.0.22621.0;C:\Program Files (x86)\Windows Kits\10\References\10.0.22621.0;C:\Windows\Microsoft.NET\Framework64\v4.0.30319
LOCALAPPDATA = C:\Users\nguyenb5\AppData\Local
LOGONSERVER = \\DC02
LSTC_LICENSE = ansys
MKLROOT = C:\Program Files (x86)\Intel\oneAPI\mkl\latest
MKL_NUM_THREADS = 1
MP_NUMBER_OF_THREADS = 1
MSMPI_BENCHMARKS = C:\Program Files\Microsoft MPI\Benchmarks\
MSMPI_BIN = C:\Program Files\Microsoft MPI\Bin\
NETFXSDKDIR = C:\Program Files (x86)\Windows Kits\NETFXSDK\4.8\
NLSPATH = C:\Program Files (x86)\Intel\oneAPI\mkl\latest\share\locale\1033;
NUMBER_OF_PROCESSORS = 16
OCL_ICD_FILENAMES = C:\Program Files (x86)\Intel\oneAPI\compiler\latest\bin\intelocl64_emu.dll;C:\Program Files (x86)\Intel\oneAPI\compiler\latest\bin\intelocl64.dll
OMP_NUM_THREADS = 1
ONEDRIVE = C:\Users\nguyenb5\OneDrive - Aalto University
ONEDRIVECOMMERCIAL = C:\Users\nguyenb5\OneDrive - Aalto University
ORIGINAL_XDG_CURRENT_DESKTOP = undefined
OS = Windows_NT
PATH = C:\Users\nguyenb5\AppData\Local\Temp\nguyenb5_notched_plate_UEL_20576;C:\SIMULIA\EstProducts\2023\win_b64\tools\SMApy\python2.7\lib\site-packages\pywin32_system32;C:\SIMULIA\EstProducts\2023;C:\SIMULIA\EstProducts\2023\win_b64;C:\SIMULIA\EstProducts\2023\win_b64\code;C:\SIMULIA\EstProducts\2023\win_b64\code\bin;C:\SIMULIA\EstProducts\2023\win_b64\code\bin\SMAExternal;C:\SIMULIA\EstProducts\2023\win_b64\CAEresources;C:\SIMULIA\EstProducts\2023\win_b64\SMA;C:\SIMULIA\EstProducts\2023\win_b64\code\bin\SMAExternal\Interop;C:\SIMULIA\EstProducts\2023\win_b64\code\bin\SMAExternal\Elysium;C:\SIMULIA\EstProducts\2023\win_b64\tools\SMApy\python2.7;C:\SIMULIA\EstProducts\2023\win_b64\tools\SMApy\python2.7\lib;C:\SIMULIA\EstProducts\2023\win_b64\tools\SMApy\python2.7\DLLs;C:\Program Files (x86)\Intel\oneAPI\mkl\latest\bin;C:\Program Files (x86)\Intel\oneAPI\compiler\latest\bin;C:\Program Files (x86)\Intel\oneAPI\compiler\latest\opt\oclfpga\host\windows64\bin;C:\Program Files (x86)\Intel\oneAPI\compiler\latest\opt\oclfpga\bin;C:\Program Files\Microsoft Visual Studio\2022\Enterprise\VC\Tools\MSVC\14.41.34120\bin\HostX64\x64;C:\Program Files\Microsoft Visual Studio\2022\Enterprise\Common7\IDE\VC\VCPackages;C:\Program Files\Microsoft Visual Studio\2022\Enterprise\Common7\IDE\CommonExtensions\Microsoft\TestWindow;C:\Program Files\Microsoft Visual Studio\2022\Enterprise\Common7\IDE\CommonExtensions\Microsoft\TeamFoundation\Team Explorer;C:\Program Files\Microsoft Visual Studio\2022\Enterprise\MSBuild\Current\bin\Roslyn;C:\Program Files (x86)\Microsoft SDKs\Windows\v10.0A\bin\NETFX 4.8 Tools\x64\;C:\Program Files (x86)\HTML Help Workshop;C:\Program Files\Microsoft Visual Studio\2022\Enterprise\Common7\IDE\CommonExtensions\Microsoft\FSharp\Tools;C:\Program Files\Microsoft Visual Studio\2022\Enterprise\Team Tools\DiagnosticsHub\Collector;C:\Program Files\Microsoft Visual Studio\2022\Enterprise\Common7\IDE\Extensions\Microsoft\CodeCoverage.Console;C:\Program Files (x86)\Windows Kits\10\bin\10.0.22621.0\\x64;C:\Program Files (x86)\Windows Kits\10\bin\\x64;C:\Program Files\Microsoft Visual Studio\2022\Enterprise\\MSBuild\Current\Bin\amd64;C:\Windows\Microsoft.NET\Framework64\v4.0.30319;C:\Program Files\Microsoft Visual Studio\2022\Enterprise\Common7\IDE\;C:\Program Files\Microsoft Visual Studio\2022\Enterprise\Common7\Tools\;C:\Program Files\Eclipse Foundation\OpenJDK\bin;C:\Program Files (x86)\NVIDIA Corporation\PhysX\Common;C:\Program Files\Microsoft MPI\Bin\;C:\Program Files (x86)\Intel\oneAPI\mpi\latest\bin\;C:\SIMULIA\Commands;C:\WINDOWS\system32;C:\WINDOWS;C:\WINDOWS\System32\Wbem;C:\WINDOWS\System32\WindowsPowerShell\v1.0\;C:\WINDOWS\System32\OpenSSH\;C:\Program Files\dotnet\;C:\Program Files\Microsoft SQL Server\Client SDK\ODBC\110\Tools\Binn\;C:\Program Files (x86)\Microsoft SQL Server\120\Tools\Binn\;C:\Program Files\Microsoft SQL Server\120\Tools\Binn\;C:\Program Files\Microsoft SQL Server\120\DTS\Binn\;C:\Program Files (x86)\Windows Kits\8.1\Windows Performance Toolkit\;C:\Program Files (x86)\Windows Kits\10\Windows Performance Toolkit\;C:\Program Files\Microsoft SQL Server\Client SDK\ODBC\170\Tools\Binn\;C:\Program Files (x86)\Microsoft SQL Server\150\Tools\Binn\;C:\Program Files\Microsoft SQL Server\150\Tools\Binn\;C:\Program Files\Microsoft SQL Server\150\DTS\Binn\;C:\Program Files\Wolfram Research\WolframScript\;C:\ProgramData\chocolatey\bin;C:\Program Files\nodejs\;C:\Programs\Matlab\runtime\win64;C:\Programs\Matlab\bin;C:\Users\nguyenb5\AppData\Local\Microsoft\WindowsApps;C:\Users\nguyenb5\AppData\Local\Programs\Microsoft VS Code\bin;C:\Users\nguyenb5\AppData\Local\Programs\Git\cmd;Z:\MinGW\bin;C:\Program Files (x86)\Intel\oneAPI\compiler\2023.2.1\windows\bin\intel64_ia32;;C:\Users\nguyenb5\AppData\Roaming\npm;c:\Users\nguyenb5\.vscode\extensions\ms-python.debugpy-2025.6.0-win32-x64\bundled\scripts\noConfigScripts;c:\Users\nguyenb5\AppData\Roaming\Code\User\globalStorage\github.copilot-chat\debugCommand;;C:\Program Files\Microsoft Visual Studio\2022\Enterprise\Common7\IDE\CommonExtensions\Microsoft\CMake\CMake\bin;C:\Program Files\Microsoft Visual Studio\2022\Enterprise\Common7\IDE\CommonExtensions\Microsoft\CMake\Ninja;C:\Program Files\Microsoft Visual Studio\2022\Enterprise\Common7\IDE\VC\Linux\bin\ConnectionManagerExe;C:\Program Files\Microsoft Visual Studio\2022\Enterprise\VC\vcpkg;C:\Program Files (x86)\Intel\oneAPI\compiler\latest\lib\ocloc
PATHEXT = .COM;.EXE;.BAT;.CMD;.VBS;.VBE;.JS;.JSE;.WSF;.WSH;.MSC;.CPL
PKG_CONFIG_PATH = C:\Program Files (x86)\Intel\oneAPI\mkl\latest\lib\pkgconfig;C:\Program Files (x86)\Intel\oneAPI\compiler\latest\lib\pkgconfig;
PLATFORM = x64
PROCESSOR_ARCHITECTURE = AMD64
PROCESSOR_IDENTIFIER = Intel64 Family 6 Model 154 Stepping 3, GenuineIntel
PROCESSOR_LEVEL = 6
PROCESSOR_REVISION = 9a03
PROGRAMDATA = C:\ProgramData
PROGRAMFILES = C:\Program Files
PROGRAMFILES(X86) = C:\Program Files (x86)
PROGRAMW6432 = C:\Program Files
PROMPT = $P$G
PRO_COMM_MSG_EXE = C:\Program Files\PTC\Creo 9.0.7.0\Common Files\x86e_win64\obj\pro_comm_msg.exe
PSMODULEPATH = \\home.org.aalto.fi\nguyenb5\data\Documents\WindowsPowerShell\Modules;C:\Program Files\WindowsPowerShell\Modules;C:\WINDOWS\system32\WindowsPowerShell\v1.0\Modules;C:\Program Files (x86)\Microsoft SQL Server\120\Tools\PowerShell\Modules\;C:\Program Files (x86)\Microsoft SQL Server\150\Tools\PowerShell\Modules\
PUBLIC = C:\Users\Public
PYDEVD_DISABLE_FILE_VALIDATION = 1
PYTHONPATH = C:\SIMULIA\EstProducts\2023\win_b64\code\python2.7\lib;C:\SIMULIA\EstProducts\2023\win_b64\tools\SMApy\python2.7\lib;C:\SIMULIA\EstProducts\2023\win_b64\tools\SMApy\python2.7\lib\lib-tk;C:\SIMULIA\EstProducts\2023\win_b64\tools\SMApy\python2.7\lib\site-packages;C:\SIMULIA\EstProducts\2023\win_b64\tools\SMApy\python2.7\DLLs;.;C:\SIMULIA\EstProducts\2023;C:\SIMULIA\EstProducts\2023\win_b64;C:\SIMULIA\EstProducts\2023\win_b64\code;C:\SIMULIA\EstProducts\2023\win_b64\code\bin;C:\SIMULIA\EstProducts\2023\win_b64\code\bin\SMAExternal;C:\SIMULIA\EstProducts\2023\win_b64\CAEresources;C:\SIMULIA\EstProducts\2023\win_b64\SMA
PYTHONUNBUFFERED = nobuffering
PYVERDIRNAME = python2.7
SCRIPT_NAME = vars.bat
SESSIONNAME = Console
SMASVT_ROOT_PATH = C:\SIMULIA\EstProducts\2023;C:\SIMULIA\EstProducts\2023\win_b64;C:\SIMULIA\EstProducts\2023\win_b64\code;C:\SIMULIA\EstProducts\2023\win_b64\code\bin;C:\SIMULIA\EstProducts\2023\win_b64\code\bin\SMAExternal;C:\SIMULIA\EstProducts\2023\win_b64\CAEresources;C:\SIMULIA\EstProducts\2023\win_b64\SMA
SYSTEMDRIVE = C:
SYSTEMROOT = C:\WINDOWS
TEMP = C:\Users\nguyenb5\AppData\Local\Temp
TERM_PROGRAM = vscode
TERM_PROGRAM_VERSION = 1.99.0
TMP = C:\Users\nguyenb5\AppData\Local\Temp\nguyenb5_notched_plate_UEL_20576
TMPDIR = C:\Users\nguyenb5\AppData\Local\Temp\nguyenb5_notched_plate_UEL_20576
UATDATA = C:\WINDOWS\CCM\UATData\D9F8C395-CAB8-491d-B8AC-179A1FE1BE77
UCRTVERSION = 10.0.22621.0
UNIVERSALCRTSDKDIR = C:\Program Files (x86)\Windows Kits\10\
USERDNSDOMAIN = ORG.AALTO.FI
USERDOMAIN = AALTO
USERDOMAIN_ROAMINGPROFILE = AALTO
USERNAME = nguyenb5
USERPROFILE = C:\Users\nguyenb5
USE_INTEL_LLVM = 0
VARSDIR = C:\Program Files (x86)\Intel\oneAPI\compiler\latest\env\
VCIDEINSTALLDIR = C:\Program Files\Microsoft Visual Studio\2022\Enterprise\Common7\IDE\VC\
VCINSTALLDIR = C:\Program Files\Microsoft Visual Studio\2022\Enterprise\VC\
VCPKG_ROOT = C:\Program Files\Microsoft Visual Studio\2022\Enterprise\VC\vcpkg
VCTOOLSINSTALLDIR = C:\Program Files\Microsoft Visual Studio\2022\Enterprise\VC\Tools\MSVC\14.41.34120\
VCTOOLSREDISTDIR = C:\Program Files\Microsoft Visual Studio\2022\Enterprise\VC\Redist\MSVC\14.40.33807\
VCTOOLSVERSION = 14.41.34120
VISUALSTUDIOVERSION = 17.0
VS140COMNTOOLS = C:\Program Files (x86)\Microsoft Visual Studio 14.0\Common7\Tools\
VS170COMNTOOLS = C:\Program Files\Microsoft Visual Studio\2022\Enterprise\Common7\Tools\
VSCMD_ARG_APP_PLAT = Desktop
VSCMD_ARG_HOST_ARCH = x64
VSCMD_ARG_TGT_ARCH = x64
VSCMD_VER = 17.11.5
VSCODE_DEBUGPY_ADAPTER_ENDPOINTS = c:\Users\nguyenb5\.vscode\extensions\ms-python.debugpy-2025.6.0-win32-x64\.noConfigDebugAdapterEndpoints\endpoint-0ed1891278ddac5b.txt
VSCODE_GIT_ASKPASS_EXTRA_ARGS = 
VSCODE_GIT_ASKPASS_MAIN = c:\Users\nguyenb5\AppData\Local\Programs\Microsoft VS Code\resources\app\extensions\git\dist\askpass-main.js
VSCODE_GIT_ASKPASS_NODE = C:\Users\nguyenb5\AppData\Local\Programs\Microsoft VS Code\Code.exe
VSCODE_GIT_IPC_HANDLE = \\.\pipe\vscode-git-e8681ad06a-sock
VSCODE_INJECTION = 1
VSINSTALLDIR = C:\Program Files\Microsoft Visual Studio\2022\Enterprise\
WINDIR = C:\WINDOWS
WINDOWSLIBPATH = C:\Program Files (x86)\Windows Kits\10\UnionMetadata\10.0.22621.0;C:\Program Files (x86)\Windows Kits\10\References\10.0.22621.0
WINDOWSSDKBINPATH = C:\Program Files (x86)\Windows Kits\10\bin\
WINDOWSSDKDIR = C:\Program Files (x86)\Windows Kits\10\
WINDOWSSDKLIBVERSION = 10.0.22621.0\
WINDOWSSDKVERBINPATH = C:\Program Files (x86)\Windows Kits\10\bin\10.0.22621.0\
WINDOWSSDKVERSION = 10.0.22621.0\
WINDOWSSDK_EXECUTABLEPATH_X64 = C:\Program Files (x86)\Microsoft SDKs\Windows\v10.0A\bin\NETFX 4.8 Tools\x64\
WINDOWSSDK_EXECUTABLEPATH_X86 = C:\Program Files (x86)\Microsoft SDKs\Windows\v10.0A\bin\NETFX 4.8 Tools\
ZES_ENABLE_SYSMAN = 1
_NT_SYMBOL_PATH = C:\SIMULIA\EstProducts\2023;C:\SIMULIA\EstProducts\2023\win_b64;C:\SIMULIA\EstProducts\2023\win_b64\code;C:\SIMULIA\EstProducts\2023\win_b64\code\bin;C:\SIMULIA\EstProducts\2023\win_b64\code\bin\SMAExternal;C:\SIMULIA\EstProducts\2023\win_b64\CAEresources;C:\SIMULIA\EstProducts\2023\win_b64\SMA;C:\SIMULIA\EstProducts\2023\win_b64\code\bin\SMAExternal\Interop;C:\SIMULIA\EstProducts\2023\win_b64\code\bin\SMAExternal\Elysium;C:\SIMULIA\EstProducts\2023\win_b64\tools\SMApy\python2.7;C:\SIMULIA\EstProducts\2023\win_b64\tools\SMApy\python2.7\lib;C:\SIMULIA\EstProducts\2023\win_b64\tools\SMApy\python2.7\DLLs
__DOTNET_ADD_64BIT = 1
__DOTNET_PREFERRED_BITNESS = 64
__MS_VC_INSTALL_PATH = C:\Program Files\Microsoft Visual Studio\2022\Enterprise\VC\Tools\MSVC\14.41.34120\
[...]
PATHEXT = .COM;.EXE;.BAT;.CMD;.VBS;.VBE;.JS;.JSE;.WSF;.WSH;.MSC;.CPL
PKG_CONFIG_PATH = C:\Program Files (x86)\Intel\oneAPI\mkl\latest\lib\pkgconfig;C:\Program Files (x86)\Intel\oneAPI\compiler\latest\lib\pkgconfig;
PLATFORM = x64
PROCESSOR_ARCHITECTURE = AMD64
PROCESSOR_IDENTIFIER = Intel64 Family 6 Model 154 Stepping 3, GenuineIntel
PROCESSOR_LEVEL = 6
PROCESSOR_REVISION = 9a03
PROGRAMDATA = C:\ProgramData
PROGRAMFILES = C:\Program Files
PROGRAMFILES(X86) = C:\Program Files (x86)
PROGRAMW6432 = C:\Program Files
PROMPT = $P$G
PRO_COMM_MSG_EXE = C:\Program Files\PTC\Creo 9.0.7.0\Common Files\x86e_win64\obj\pro_comm_msg.exe
PSMODULEPATH = \\home.org.aalto.fi\nguyenb5\data\Documents\WindowsPowerShell\Modules;C:\Program Files\WindowsPowerShell\Modules;C:\WINDOWS\system32\WindowsPowerShell\v1.0\Modules;C:\Program Files (x86)\Microsoft SQL Server\120\Tools\PowerShell\Modules\;C:\Program Files (x86)\Microsoft SQL Server\150\Tools\PowerShell\Modules\
PUBLIC = C:\Users\Public
PYTHONPATH = C:\SIMULIA\EstProducts\2023\win_b64\code\python2.7\lib;C:\SIMULIA\EstProducts\2023\win_b64\tools\SMApy\python2.7\lib;C:\SIMULIA\EstProducts\2023\win_b64\tools\SMApy\python2.7\lib\lib-tk;C:\SIMULIA\EstProducts\2023\win_b64\tools\SMApy\python2.7\lib\site-packages;C:\SIMULIA\EstProducts\2023\win_b64\tools\SMApy\python2.7\DLLs;.;C:\SIMULIA\EstProducts\2023;C:\SIMULIA\EstProducts\2023\win_b64;C:\SIMULIA\EstProducts\2023\win_b64\code;C:\SIMULIA\EstProducts\2023\win_b64\code\bin;C:\SIMULIA\EstProducts\2023\win_b64\code\bin\SMAExternal;C:\SIMULIA\EstProducts\2023\win_b64\CAEresources;C:\SIMULIA\EstProducts\2023\win_b64\SMA
PYTHONUNBUFFERED = nobuffering
PYVERDIRNAME = python2.7
SCRIPT_NAME = vars.bat
SESSIONNAME = Console
SMASVT_ROOT_PATH = C:\SIMULIA\EstProducts\2023;C:\SIMULIA\EstProducts\2023\win_b64;C:\SIMULIA\EstProducts\2023\win_b64\code;C:\SIMULIA\EstProducts\2023\win_b64\code\bin;C:\SIMULIA\EstProducts\2023\win_b64\code\bin\SMAExternal;C:\SIMULIA\EstProducts\2023\win_b64\CAEresources;C:\SIMULIA\EstProducts\2023\win_b64\SMA
SYSTEMDRIVE = C:
SYSTEMROOT = C:\WINDOWS
TEMP = C:\Users\nguyenb5\AppData\Local\Temp
TERM_PROGRAM = vscode
TERM_PROGRAM_VERSION = 1.99.0
TMP = C:\Users\nguyenb5\AppData\Local\Temp\nguyenb5_notched_plate_UEL_26384
TMPDIR = C:\Users\nguyenb5\AppData\Local\Temp\nguyenb5_notched_plate_UEL_26384
UATDATA = C:\WINDOWS\CCM\UATData\D9F8C395-CAB8-491d-B8AC-179A1FE1BE77
UCRTVERSION = 10.0.22621.0
UNIVERSALCRTSDKDIR = C:\Program Files (x86)\Windows Kits\10\
USERDNSDOMAIN = ORG.AALTO.FI
USERDOMAIN = AALTO
USERDOMAIN_ROAMINGPROFILE = AALTO
USERNAME = nguyenb5
USERPROFILE = C:\Users\nguyenb5
USE_INTEL_LLVM = 0
VARSDIR = C:\Program Files (x86)\Intel\oneAPI\compiler\latest\env\
VCIDEINSTALLDIR = C:\Program Files\Microsoft Visual Studio\2022\Enterprise\Common7\IDE\VC\
VCINSTALLDIR = C:\Program Files\Microsoft Visual Studio\2022\Enterprise\VC\
VCPKG_ROOT = C:\Program Files\Microsoft Visual Studio\2022\Enterprise\VC\vcpkg
VCTOOLSINSTALLDIR = C:\Program Files\Microsoft Visual Studio\2022\Enterprise\VC\Tools\MSVC\14.41.34120\
VCTOOLSREDISTDIR = C:\Program Files\Microsoft Visual Studio\2022\Enterprise\VC\Redist\MSVC\14.40.33807\
VCTOOLSVERSION = 14.41.34120
VISUALSTUDIOVERSION = 17.0
VS140COMNTOOLS = C:\Program Files (x86)\Microsoft Visual Studio 14.0\Common7\Tools\
VS170COMNTOOLS = C:\Program Files\Microsoft Visual Studio\2022\Enterprise\Common7\Tools\
VSCMD_ARG_APP_PLAT = Desktop
VSCMD_ARG_HOST_ARCH = x64
VSCMD_ARG_TGT_ARCH = x64
VSCMD_VER = 17.11.5
VSCODE_GIT_ASKPASS_EXTRA_ARGS = 
VSCODE_GIT_ASKPASS_MAIN = c:\Users\nguyenb5\AppData\Local\Programs\Microsoft VS Code\resources\app\extensions\git\dist\askpass-main.js
VSCODE_GIT_ASKPASS_NODE = C:\Users\nguyenb5\AppData\Local\Programs\Microsoft VS Code\Code.exe
VSCODE_GIT_IPC_HANDLE = \\.\pipe\vscode-git-f5beb7c6c2-sock
VSCODE_INJECTION = 1
VSINSTALLDIR = C:\Program Files\Microsoft Visual Studio\2022\Enterprise\
WINDIR = C:\WINDOWS
WINDOWSLIBPATH = C:\Program Files (x86)\Windows Kits\10\UnionMetadata\10.0.22621.0;C:\Program Files (x86)\Windows Kits\10\References\10.0.22621.0
WINDOWSSDKBINPATH = C:\Program Files (x86)\Windows Kits\10\bin\
WINDOWSSDKDIR = C:\Program Files (x86)\Windows Kits\10\
WINDOWSSDKLIBVERSION = 10.0.22621.0\
WINDOWSSDKVERBINPATH = C:\Program Files (x86)\Windows Kits\10\bin\10.0.22621.0\
WINDOWSSDKVERSION = 10.0.22621.0\
WINDOWSSDK_EXECUTABLEPATH_X64 = C:\Program Files (x86)\Microsoft SDKs\Windows\v10.0A\bin\NETFX 4.8 Tools\x64\
WINDOWSSDK_EXECUTABLEPATH_X86 = C:\Program Files (x86)\Microsoft SDKs\Windows\v10.0A\bin\NETFX 4.8 Tools\
ZES_ENABLE_SYSMAN = 1
_NT_SYMBOL_PATH = C:\SIMULIA\EstProducts\2023;C:\SIMULIA\EstProducts\2023\win_b64;C:\SIMULIA\EstProducts\2023\win_b64\code;C:\SIMULIA\EstProducts\2023\win_b64\code\bin;C:\SIMULIA\EstProducts\2023\win_b64\code\bin\SMAExternal;C:\SIMULIA\EstProducts\2023\win_b64\CAEresources;C:\SIMULIA\EstProducts\2023\win_b64\SMA;C:\SIMULIA\EstProducts\2023\win_b64\code\bin\SMAExternal\Interop;C:\SIMULIA\EstProducts\2023\win_b64\code\bin\SMAExternal\Elysium;C:\SIMULIA\EstProducts\2023\win_b64\tools\SMApy\python2.7;C:\SIMULIA\EstProducts\2023\win_b64\tools\SMApy\python2.7\lib;C:\SIMULIA\EstProducts\2023\win_b64\tools\SMApy\python2.7\DLLs
__DOTNET_ADD_64BIT = 1
__DOTNET_PREFERRED_BITNESS = 64
__MS_VC_INSTALL_PATH = C:\Program Files\Microsoft Visual Studio\2022\Enterprise\VC\Tools\MSVC\14.41.34120\
__VSCMD_PREINIT_PATH = C:\Program Files\Eclipse Foundation\OpenJDK\bin;C:\Program Files (x86)\NVIDIA Corporation\PhysX\Common;C:\Program Files\Microsoft MPI\Bin\;C:\Program Files (x86)\Intel\oneAPI\mpi\latest\bin\;C:\Program Files (x86)\Intel\oneAPI\mpi\latest\bin\release\;C:\Program Files (x86)\Intel\oneAPI\mpi\latest\libfabric\bin\;C:\Program Files (x86)\Intel\oneAPI\mpi\latest\libfabric\bin\utils\;C:\Program Files (x86)\Intel\oneAPI\compiler\latest\windows\redist\intel64_win\compiler;C:\Program Files (x86)\Intel\oneAPI\compiler\latest\windows\redist\ia32_win\compiler;C:\SIMULIA\Commands;C:\WINDOWS\system32;C:\WINDOWS;C:\WINDOWS\System32\Wbem;C:\WINDOWS\System32\WindowsPowerShell\v1.0\;C:\WINDOWS\System32\OpenSSH\;C:\Program Files\dotnet\;C:\Program Files\Microsoft SQL Server\Client SDK\ODBC\110\Tools\Binn\;C:\Program Files (x86)\Microsoft SQL Server\120\Tools\Binn\;C:\Program Files\Microsoft SQL Server\120\Tools\Binn\;C:\Program Files\Microsoft SQL Server\120\DTS\Binn\;C:\Program Files (x86)\Windows Kits\8.1\Windows Performance Toolkit\;C:\Program Files (x86)\Windows Kits\10\Windows Performance Toolkit\;C:\Program Files\Microsoft SQL Server\Client SDK\ODBC\170\Tools\Binn\;C:\Program Files (x86)\Microsoft SQL Server\150\Tools\Binn\;C:\Program Files\Microsoft SQL Server\150\Tools\Binn\;C:\Program Files\Microsoft SQL Server\150\DTS\Binn\;C:\Program Files\Wolfram Research\WolframScript\;C:\ProgramData\chocolatey\bin;C:\Program Files\nodejs\;C:\Programs\Matlab\runtime\win64;C:\Programs\Matlab\bin;C:\Program Files\SAM\External\WinRAR;C:\Users\nguyenb5\AppData\Local\Microsoft\WindowsApps;C:\Users\nguyenb5\AppData\Local\Programs\Microsoft VS Code\bin;C:\Users\nguyenb5\AppData\Local\Programs\Git\cmd;Z:\MinGW\bin;C:\Program Files (x86)\Intel\oneAPI\compiler\2023.2.1\windows\bin\intel64_ia32;C:\SIMULIA\Commands;C:\Users\nguyenb5\AppData\Roaming\npm;c:\Users\nguyenb5\AppData\Roaming\Code\User\globalStorage\github.copilot-chat\debugCommand;C:\Program Files (x86)\Intel\oneAPI\compiler\latest\windows\bin\intel64;
decfort_dump_flag = TRUE

# --------------- Execution Options -----------------
SIMExt = .sim
aba_jle_exclusions = {'inertiaReliefPerturbationLoadCases': {'inertiarelief': ON, 'loadcases': '5', 'perturbation': ON}}
aba_jle_std_direct = 10,20
aba_jle_std_direct_memlimit = 8gb
aba_jle_std_direct_reqcpus = 32
aba_jle_std_iterative = 4
aba_jle_std_mbld = 6,12,24,48
aba_jle_xpl_all = 1
aba_timing = 1
abaquslm_license_file = 4084@lic-abaqus.aalto.fi
adaptiveMesh = OFF
ams = OFF
analysisType = STANDARD
applicationName = analysis
aqua = OFF
ask_delete = OFF
auto_calculate = ANALYSIS
auto_convert = ON
beamSectGen = OFF
biorid = OFF
cae_local_host = localhost
cavityTypes = []
cavparallel = OFF
compile_cpp = ['cl', '/c', '/W0', '/MD', '/TP', '/EHsc', '/DNDEBUG', '/DWIN32', '/DTP_IP', '/D_CONSOLE', '/DNTI', '/DFLT_LIC', '/DOL_DOC', '/D__LIB__', '/DHKS_NT', '/D_WINDOWS_SOURCE', '/DFAR=', '/D_WINDOWS', '/DABQ_WIN86_64', '%P', '/I%I', '/IC:\\SIMULIA\\EstProducts\\2023']
compile_fmu = ['win64CmpWrp', '-m64', '-msvc9', 'cl', '/LD', '/D_WINDOWS', '/TC', '/W0', '/I%I', '/IC:\\SIMULIA\\EstProducts\\2023']
compile_fortran = ['ifort', '/c', '/fpp', '/extend-source', '/DABQ_WIN86_64', '/DABQ_FORTRAN', '/iface:cref', '/recursive', '/Qauto', '/align:array64byte', '/Qpc64', '/Qprec-div', '/Qprec-sqrt', '/Qfma-', '/fp:precise', '/Qimf-arch-consistency:true', '/Qfp-speculation:safe', '/Qprotect-parens', '/Qfp-stack-check', '/reentrancy:threaded', '/QxSSE3', '/QaxAVX', '/include:%I', '/include:C:\\SIMULIA\\EstProducts\\2023', '%P', '/names:lowercase', '/Qmkl:sequential']
complexFrequency = OFF
connect_timeout = 30
contact = OFF
cosimulation = OFF
coupledProcedure = ON
cpus = 1
cpusValidated = True
cse = OFF
cyclicSymmetryModel = OFF
directCyclic = OFF
direct_port = None
direct_solver = SMP
direct_solver_use_default = 1
doc_root = http://help.3ds.com
domains = 1
dsa = OFF
dynStepSenseAdj = OFF
dynamic = OFF
exciteBodies = []
externalField = OFF
externalFieldCSEAux = OFF
externalFieldExtList = ['.sim', '.SMAManifest']
externalFieldFiles = []
externalFieldSimReader = None
fieldImport = OFF
filPrt = []
fils = []
finitesliding = OFF
flexibleBody = OFF
foundation = OFF
freqSimReq = OFF
geostatic = OFF
heatTransfer = OFF
impJobExpVars = {}
importJobList = []
importSim = OFF
importer = OFF
importerParts = OFF
includes = ['processing_input_notched_plate/nodes.inc', 'processing_input_notched_plate/elements_UEL.inc', 'processing_input_notched_plate/elements_VISUAL.inc']
indir = C:\LocalUserData\User-data\nguyenb5\Abaqus-UEL-Multiphysics\(UEL) cube_C3D8T_multiphysics
inertiarelief = OFF
initialConditionsFile = OFF
input = notched_plate_UEL
inputFormat = INP
interactive = None
interpolExtList = ['.odb', '.sim', '.SMAManifest']
jleJobExcluded = False
job = notched_plate_UEL
keyword_licenses = []
lanczos = OFF
lastmessageonly = OFF
libs = []
license_server_type = FLEXNET
link_exe = ['LINK', '/nologo', '/INCREMENTAL:NO', '/subsystem:console', '/machine:AMD64', '/STACK:20000000', '/NODEFAULTLIB:LIBC.LIB', '/NODEFAULTLIB:LIBCMT.LIB', '/DEFAULTLIB:OLDNAMES.LIB', '/DEFAULTLIB:LIBIFCOREMD.LIB', '/DEFAULTLIB:LIBIFPORTMD.LIB', '/DEFAULTLIB:LIBMMD.LIB', '/DEFAULTLIB:kernel32.lib', '/DEFAULTLIB:user32.lib', '/DEFAULTLIB:advapi32.lib', '/FIXED:NO', '/LARGEADDRESSAWARE', '/out:%J', '%F', '%M', '%L', '%B', '%O', 'oldnames.lib', 'user32.lib', 'ws2_32.lib', 'netapi32.lib', 'advapi32.lib', 'msvcrt.lib', 'vcruntime.lib', 'ucrt.lib']
link_sl = ['LINK', '/nologo', '/NOENTRY', '/INCREMENTAL:NO', '/subsystem:console', '/machine:AMD64', '/NODEFAULTLIB:LIBC.LIB', '/NODEFAULTLIB:LIBCMT.LIB', '/DEFAULTLIB:OLDNAMES.LIB', '/DEFAULTLIB:LIBIFCOREMD.LIB', '/DEFAULTLIB:LIBIFPORTMD.LIB', '/DEFAULTLIB:LIBMMD.LIB', '/DEFAULTLIB:kernel32.lib', '/DEFAULTLIB:user32.lib', '/DEFAULTLIB:advapi32.lib', '/FIXED:NO', '/dll', '/def:%E', '/out:%U', '%F', '%A', '%L', '%B', 'oldnames.lib', 'user32.lib', 'ws2_32.lib', 'netapi32.lib', 'advapi32.lib', 'msvcrt.lib', 'vcruntime.lib', 'ucrt.lib']
listener_name = None
listener_resource = None
lmsuspend = None
magnetostatic = OFF
massDiffusion = OFF
materialresponse = OFF
message = OFF
messaging_mechanism = DIRECT
modifiedTet = OFF
moldflowFiles = []
moldflowMaterial = OFF
mp_environment_export = ('ABAQUSLM_LICENSE_FILE', 'ABAQUS_CCI_DEBUG', 'ABAQUS_CSE_CURRCONFIGMAPPING', 'ABAQUS_CSE_RELTIMETOLERANCE', 'ABAQUS_DEVL_MODE', 'ABAQUS_LANG', 'ABAQUS_MPF_DIAGNOSTIC_LEVEL', 'ABA_ADM_ALIGNMENT', 'ABA_ADM_MINIMUMDECREASE', 'ABA_ADM_MINIMUMINCREASE', 'ABA_ALL_ADB_IN_TMPDIR', 'ABA_CM_BUFFERING', 'ABA_CM_BUFFERING_LIMIT', 'ABA_CUTOFF_SLAVEFACET_ANGLE', 'ABA_DIRECT_SOLVER_PATH', 'ABA_DMPSOLVER_BWDPARALLELOFF', 'ABA_ELP_SURFACE_SPLIT', 'ABA_ELP_SUSPEND', 'ABA_ENABLE_DYNELEMS', 'ABA_EVOLVING_JOBS', 'ABA_EXT_SIMOUTPUT', 'ABA_GCONT_POOL_SIZE', 'ABA_HOME', 'ABA_INC_DEFAULT', 'ABA_ITERATIVE_SOLVER_VERBOSE', 'ABA_MEMORY_MODE', 'ABA_MPI_MESSAGE_TRACKING', 'ABA_MPI_VERBOSE_LEVEL', 'ABA_NEW_STOS_COHESIVE_APPROX_CONTACT', 'ABA_NEW_STOS_COHESIVE_CONTACT', 'ABA_NUM_INTEGRATION_POINTS_LINE3D', 'ABA_SHARED_SAVEDIR', 'ABA_PATH', 'ABA_PRE_DECOMPOSITION', 'ABA_PRINT_DYNELEMS', 'ABA_REMOVE_OVERCONSTRAINED_TIES', 'ABA_RESOURCE_MONITOR', 'ABA_RESOURCE_USEMALLINFO', 'ABA_RESULTS_OVERLAY', 'ABA_STD_ACTIVATE_CONTACT_FOR_AM', 'ABA_STD_MAX_SEARCH_DISTANCE', 'ABA_SYMBOLIC_GENERALCOLLAPSE', 'ABA_SYMBOLIC_GENERAL_MAXCLIQUERANK', 'ABA_TOSCA_JOB_STALL', 'ABA_TOSCA_OVERLAY', 'ABA_TOSCA_PROTOTYPE', 'ABA_TOSCA_SEQFILES', 'ABA_TOSCA_STALL', 'ABA_UNIT_INDEPENDENT_CONTACT', 'ABA_USE_NEW_STOS_SST_FORMULATION', 'ABA_USE_NEWTRACKDB', 'ABA_USE_OLD_SURF_TO_SURF_CONTACT', 'ABA_POTENTIAL_DEV', 'ABA_XPL_ALLMEMCHECKS', 'ABA_XPL_DEBUG', 'ABQLMHANGLIMIT', 'ABQLMIMPL', 'ABQLMQUEUE', 'ABQLMUSER', 'ABQ_ACTIVATE_PTK', 'ABQ_BYPASS_UNCONNECTED_REGION_CHECK', 'ABQ_CRTMALLOC', 'ABQ_DATACHECK', 'ABQ_DLALLOCATOR', 'ABQ_PATTERN', 'ABQ_PATTERN_VALUE', 'ABQ_RECOVER', 'ABQ_RESTART', 'ABQ_SKIP_ANALYTIC_SURF_GCONT', 'ABQ_SPLITFILE', 'ABQ_STD_ACCUM_CSLIP', 'ABQ_STD_ACTIVATE_BEAM_ROTATION', 'ABQ_STD_ALLOW_SURFACE_TO_BEAM', 'ABQ_SUPERELASTIC_MODIFIED', 'ABQ_GC_HEAT', 'ABQ_GC_SMALL', 'ABQ_UREG_USE_CONTACT_ELEM', 'ABQ_XFEM_POREPRESSURE', 'ABQ_XPL_DSMABORT', 'ABQ_XPL_PARTITIONSIZE', 'ABQ_XPL_WINDOWDUMP', 'ACML_FAST_MALLOC', 'ACML_FAST_MALLOC_CHUNK_SIZE', 'ACML_FAST_MALLOC_DEBUG', 'ACML_FAST_MALLOC_MAX_CHUNKS', 'ADB_USE_OLDSLDB', 'ADB_USE_NEWSLDB', 'CCI_RENDEZVOUS', 'DOMAIN', 'DOMAIN_CPUS', 'DOUBLE_PRECISION', 'DSLS_AUTH_PATHNAME', 'DSLS_CONFIG', 'FI_PROVIDER', 'FI_PROVIDER_PATH', 'FLEXLM_DIAGNOSTICS', 'FOR0006', 'FOR0064', 'FOR_DISABLE_DIAGNOSTIC_DISPLAY', 'FOR_IGNORE_EXCEPTIONS', 'I_MPI_FABRICS', 'I_MPI_OFI_PROVIDER', 'IPATH_NO_CPUAFFINITY', 'LD_PRELOAD', 'MALLOC_MMAP_THRESHOLD_', 'MKL_DYNAMIC', 'MKL_NUM_THREADS', 'MPCCI_CODEID', 'MPCCI_DEBUG', 'MPCCI_JOBID', 'MPCCI_NETDEVICE', 'MPCCI_SERVER', 'MPCCI_TINFO', 'MPC_GANG', 'MPIEXEC_AFFINITY_TABLE', 'MPI_FLAGS', 'MPI_FLUSH_FCACHE', 'MPI_PROPAGATE_TSTP', 'MPI_SOCKBUFSIZE', 'MPI_USE_MALLOPT_MMAP_MAX', 'MPI_USE_MALLOPT_MMAP_THRESHOLD', 'MPI_USE_MALLOPT_SBRK_PROTECTION', 'MPI_WORKDIR', 'MPIR_CVAR_CH4_OFI_TAG_BITS', 'MPIR_CVAR_CH4_OFI_RANK_BITS', 'MP_NUMBER_OF_THREADS', 'MPICH_ND_ZCOPY_THRESHOLD', 'NCPUS', 'OMP_DYNAMIC', 'OMP_NUM_THREADS', 'OUTDIR', 'PAIDUP', 'PARALLEL_METHOD', 'RAIDEV_NDREG_LAZYMEM', 'SMA_PARENT', 'SMA_PLATFORM', 'SMA_WS', 'SIMULIA_COSIN_PATH', 'STD_INITSTRESS_FLAG', 'STD_INITGEOICS_FLAG', 'UCX_IB_MLX5_DEVX', 'XPL_HMP_COMMTHREAD')
mp_file_system = (DETECT, DETECT)
mp_mode = THREADS
mp_mode_requested = THREADS
mp_mpiCommand = []
mp_mpi_implementation = NATIVE
mp_mpi_searchpath = ['Microsoft MPI', 'Microsoft HPC Pack', 'Microsoft HPC Pack 2008 R2', 'Microsoft HPC Pack 2008', 'Microsoft HPC Pack 2008 SDK', 'Microsoft HPC Pack 2012']
mp_mpirun_path = C:\Program Files\Microsoft MPI\bin\mpiexec.exe
mp_rsh_command = dummy %H -l %U -n %C
multiphysics = OFF
noDmpDirect = []
noMultiHost = []
noMultiHostElemLoop = []
no_domain_check = 1
numLoadCases = 0
onCaeGraphicsStartup = <function onCaeGraphicsStartup at 0x000001C6B5FEE6D8>
onJobCompletion = []
onJobStartup = []
onestepinverse = OFF
outdir = C:\LocalUserData\User-data\nguyenb5\Abaqus-UEL-Multiphysics\(UEL) cube_C3D8T_multiphysics
outputKeywords = ON
parameterized = OFF
partsAndAssemblies = ON
parval = OFF
pgdHeatTransfer = OFF
plugin_central_dir = C:\SIMULIA\CAE\plugins\2023
postOutput = OFF
preDecomposition = ON
queues = {}
randomResponse = OFF
restart = OFF
restartEndStep = OFF
restartIncrement = 0
restartStep = 0
restartWrite = OFF
resultsFormat = ODB
rezone = OFF
runCalculator = OFF
simMode = SFS
simpackBodies = []
simwrk = C:\LocalUserData\User-data\nguyenb5\Abaqus-UEL-Multiphysics\(UEL) cube_C3D8T_multiphysics\notched_plate_UEL
soils = OFF
soliter = OFF
solverTypes = ['DIRECT']
ssd = OFF
ssdCheckOK = False
standard_parallel = ALL
staticNonlinear = OFF
steadyStateTransport = OFF
step = ON
stepSenseAdj = OFF
stressExtList = ['.odb', '.sim', '.SMAManifest']
subGen = OFF
subGenResidual = OFF
submodel = OFF
substrLibDefs = OFF
substructure = OFF
symModGenModel = OFF
symmetricModelGeneration = OFF
symmetricResultsTransfer = OFF
tempNoInterpolExtList = ['.fil', '.odb', '.sim', '.SMAManifest']
thermal = OFF
timeout = 3600
tmpdir = C:\Users\nguyenb5\AppData\Local\Temp\nguyenb5_notched_plate_UEL_26384
tracer = OFF
transientSensitivity = OFF
umbrella_host = L23-0203
umbrella_port = 65396
unconnected_regions = OFF
unfold_param = OFF
unsymm = OFF
user = source_code/UEL_multiphysics.f90
verbose = 1
visco = OFF
xplSelect = OFF

